%chk=JID_7226.chk
%mem=8GB
%nprocshared=4
# opt freq B3LYP/6-31G(d) empiricaldispersion=gd3bj scf=xqc

CID_63137302_JID_7226_neutraal

0 1
C          1.04265       -0.07371        0.05242
C          0.28875        0.14651       -1.24890
C          0.90525       -0.39229       -2.57807
C          1.21681       -1.90853       -2.50603
C          2.58172       -2.24546       -1.90305
C          3.70043       -1.36453       -2.45124
N          3.37106        0.04916       -2.27824
C          2.15653        0.41310       -3.01255
C          4.50363        0.95682       -2.49453
C          5.44552        0.73746       -3.69292
C          4.86325        0.94656       -5.09207
C          4.26081        2.33059       -5.35868
C          5.23241        3.49620       -5.20250
O          6.31812        3.38292       -6.11026
C         -0.14791       -0.14197       -3.66726
O         -1.16087        0.53302       -3.56798
O          0.13976       -0.70893       -4.85663
H          1.05405       -1.12955        0.33316
H          0.53424        0.46011        0.86320
H          2.06591        0.30430        0.01032
H         -0.71026       -0.29290       -1.11849
H          0.11862        1.22726       -1.35259
H          0.42860       -2.43410       -1.95244
H          1.20430       -2.34874       -3.51100
H          2.55324       -2.15886       -0.81319
H          2.81470       -3.29711       -2.11029
H          4.61972       -1.60869       -1.90507
H          3.87139       -1.60759       -3.50718
H          2.32347        0.28395       -4.08657
H          1.94541        1.48120       -2.86875
H          4.15699        1.99757       -2.48117
H          5.13027        0.87443       -1.59571
H          6.30408        1.40962       -3.56827
H          5.87272       -0.27171       -3.64372
H          5.65889        0.75804       -5.82386
H          4.10591        0.18233       -5.29437
H          3.88500        2.32914       -6.38971
H          3.39605        2.49783       -4.70896
H          4.71450        4.43460       -5.42509
H          5.62508        3.57225       -4.18417
H          6.87952        2.64733       -5.81347
H         -0.61309       -0.44738       -5.42847

--Link1--
%chk=JID_7226.chk
%mem=8GB
%nprocshared=4
# B3LYP/6-311++G(d,p) empiricaldispersion=gd3bj scf=xqc pop=npa geom=check

CID_63137302_JID_7226_Energie_neutraal

0 1

--Link1--
%chk=JID_7226.chk
%mem=8GB
%nprocshared=4
# B3LYP/6-311++G(d,p) empiricaldispersion=gd3bj scf=xqc pop=npa geom=check

CID_63137302_JID_7226_Energie_kation

1 2

--Link1--
%chk=JID_7226.chk
%mem=8GB
%nprocshared=4
# B3LYP/6-311++G(d,p) empiricaldispersion=gd3bj scf=xqc pop=npa geom=check

CID_63137302_JID_7226_Energie_anion

-1 2
