%chk=JID_5450.chk
%mem=8GB
%nprocshared=4
# opt freq B3LYP/6-31G(d) empiricaldispersion=gd3bj scf=xqc

CID_114465205_JID_5450_neutraal

0 1
C          0.98380       -0.09367        0.03103
O          0.22679       -0.09129       -1.17534
C          0.22605        1.09116       -1.83547
O          0.82474        2.09096       -1.46982
N         -0.56163        1.14046       -2.97710
S         -1.02839       -0.14362       -3.87261
O         -1.87661        0.35953       -4.92411
O          0.12606       -0.94904       -4.18384
N         -1.96854       -1.02547       -2.82704
C         -3.16311       -0.42211       -2.20746
C         -4.39721       -0.27814       -3.12825
C         -5.09006       -1.55212       -3.57263
C         -4.41982       -2.53482       -4.50308
C         -4.73263       -2.93842       -3.08801
N         -5.41521        0.49069       -2.38893
H          0.89361       -1.08375        0.48651
H          0.59048        0.64651        0.73503
H          2.04126        0.09494       -0.17907
H         -0.45457        1.99114       -3.51708
H         -2.09563       -1.97643       -3.16466
H         -3.41738       -1.03974       -1.33661
H         -2.88621        0.55782       -1.79929
H         -4.14197        0.30479       -4.01664
H         -6.13355       -1.36973       -3.82387
H         -5.02254       -2.96662       -5.29680
H         -3.39484       -2.36466       -4.80397
H         -3.90947       -3.09056       -2.40273
H         -5.54662       -3.64007       -2.93222
H         -6.17975        0.73172       -3.01821
H         -5.81525       -0.09032       -1.65296

--Link1--
%chk=JID_5450.chk
%mem=8GB
%nprocshared=4
# B3LYP/6-311++G(d,p) empiricaldispersion=gd3bj scf=xqc pop=npa geom=check

CID_114465205_JID_5450_Energie_neutraal

0 1

--Link1--
%chk=JID_5450.chk
%mem=8GB
%nprocshared=4
# B3LYP/6-311++G(d,p) empiricaldispersion=gd3bj scf=xqc pop=npa geom=check

CID_114465205_JID_5450_Energie_kation

1 2

--Link1--
%chk=JID_5450.chk
%mem=8GB
%nprocshared=4
# B3LYP/6-311++G(d,p) empiricaldispersion=gd3bj scf=xqc pop=npa geom=check

CID_114465205_JID_5450_Energie_anion

-1 2
