%chk=JID_6304.chk
%mem=8GB
%nprocshared=4
# opt freq B3LYP/6-31G(d) empiricaldispersion=gd3bj scf=xqc

CID_83963478_JID_6304_neutraal

0 1
C          1.05037       -0.07832       -0.03647
C          0.50900        0.20368        1.36984
C          1.01464        1.58318        1.82002
C         -1.04281        0.11994        1.42653
C         -1.63560       -1.23964        0.94673
N         -1.22909       -2.34029        1.82520
C         -2.13579       -3.31051        2.24642
C         -1.86459       -4.00230        3.44043
C         -2.76922       -4.98425        3.86386
C         -3.90388       -5.32471        3.14133
C         -4.15650       -4.67153        1.92686
C         -3.25901       -3.68003        1.49431
C         -4.52467       -6.33279        3.91105
N         -3.85109       -6.61692        5.02930
N         -2.78975       -5.79179        4.97010
N         -1.51494        0.41538        2.79793
H          0.59106        0.58351       -0.77837
H          0.86342       -1.11379       -0.33578
H          2.13483        0.07258       -0.07484
H          0.94388       -0.53977        2.04989
H          0.59246        2.38100        1.19954
H          0.75271        1.78642        2.86318
H          2.10621        1.63990        1.74615
H         -1.44686        0.90172        0.77035
H         -2.72686       -1.12408        0.93431
H         -1.33104       -1.46227       -0.08050
H         -0.51284       -2.10456        2.50324
H         -0.98346       -3.77393        4.03080
H         -5.02199       -4.92786        1.32377
H         -3.45641       -3.20989        0.53453
H         -5.44003       -6.86976        3.69973
H         -2.11302       -5.82552        5.72345
H         -2.53219        0.50428        2.78049
H         -1.35179       -0.40425        3.38387

--Link1--
%chk=JID_6304.chk
%mem=8GB
%nprocshared=4
# B3LYP/6-311++G(d,p) empiricaldispersion=gd3bj scf=xqc pop=npa geom=check

CID_83963478_JID_6304_Energie_neutraal

0 1

--Link1--
%chk=JID_6304.chk
%mem=8GB
%nprocshared=4
# B3LYP/6-311++G(d,p) empiricaldispersion=gd3bj scf=xqc pop=npa geom=check

CID_83963478_JID_6304_Energie_kation

1 2

--Link1--
%chk=JID_6304.chk
%mem=8GB
%nprocshared=4
# B3LYP/6-311++G(d,p) empiricaldispersion=gd3bj scf=xqc pop=npa geom=check

CID_83963478_JID_6304_Energie_anion

-1 2
