%chk=JID_8121.chk
%mem=8GB
%nprocshared=4
# opt freq B3LYP/6-31G(d) empiricaldispersion=gd3bj scf=xqc

CID_79333357_JID_8121_neutraal

0 1
C          1.02988       -0.08588        0.04161
C          0.12527       -0.24882       -1.17147
C          0.70586       -1.15900       -2.25752
N          0.86397       -2.53130       -1.77009
C          1.23786       -3.45275       -2.84663
C          0.08028       -3.93044       -3.79271
C          0.39371       -5.37768       -4.21425
C          1.30449       -5.84245       -3.12354
C          1.70686       -7.14606       -2.87717
C          2.61614       -7.37847       -1.84501
C          3.12352       -6.31200       -1.09049
C          2.72231       -5.00014       -1.35324
C          1.79439       -4.77295       -2.36325
S         -1.68620       -3.59342       -3.44367
C         -2.22035       -4.41724       -1.93880
C         -2.36162       -5.93611       -1.98126
O         -1.87342       -6.02403       -0.60942
C         -1.31078       -4.67985       -0.75115
H          1.14525       -1.02710        0.58746
H          0.60145        0.64698        0.73292
H          2.02276        0.26763       -0.25389
H         -0.85110       -0.62937       -0.84733
H         -0.05252        0.74125       -1.60845
H          0.03166       -1.12586       -3.11983
H          1.67463       -0.76462       -2.58763
H          1.59393       -2.53693       -1.06076
H          2.03699       -3.00760       -3.45728
H          0.19449       -3.32166       -4.70117
H         -0.48786       -6.01130       -4.32719
H          0.94783       -5.38594       -5.16067
H          1.32730       -7.97213       -3.47062
H          2.93916       -8.39352       -1.62771
H          3.83769       -6.50970       -0.29457
H          3.13333       -4.18386       -0.76884
H         -3.15993       -3.96230       -1.59451
H         -3.38902       -6.30256       -2.06643
H         -1.71943       -6.51094       -2.64932
H         -0.23975       -4.75569       -0.88284
H         -1.51925       -4.06607        0.13054

--Link1--
%chk=JID_8121.chk
%mem=8GB
%nprocshared=4
# B3LYP/6-311++G(d,p) empiricaldispersion=gd3bj scf=xqc pop=npa geom=check

CID_79333357_JID_8121_Energie_neutraal

0 1

--Link1--
%chk=JID_8121.chk
%mem=8GB
%nprocshared=4
# B3LYP/6-311++G(d,p) empiricaldispersion=gd3bj scf=xqc pop=npa geom=check

CID_79333357_JID_8121_Energie_kation

1 2

--Link1--
%chk=JID_8121.chk
%mem=8GB
%nprocshared=4
# B3LYP/6-311++G(d,p) empiricaldispersion=gd3bj scf=xqc pop=npa geom=check

CID_79333357_JID_8121_Energie_anion

-1 2
