%chk=JID_7369.chk
%mem=8GB
%nprocshared=4
# opt freq B3LYP/6-31G(d) empiricaldispersion=gd3bj scf=xqc

CID_15176044_JID_7369_neutraal

0 1
C          0.95993       -0.07154       -0.05724
S         -0.49470       -1.14343       -0.06208
C          0.19683       -2.63622        0.51200
C         -0.42530       -3.85131        0.67573
C          0.58115       -4.72149        1.15952
N          1.74531       -4.07060        1.28583
O          1.50194       -2.77238        0.88162
C          0.37100       -6.10531        1.46380
C          1.31346       -6.94394        1.92605
C          1.05863       -8.33878        2.21334
C          2.00517       -9.16403        2.68726
C          1.77256      -10.58287        2.98972
C          2.36096      -11.13874        4.13281
C          2.18579      -12.49120        4.43649
C          1.43070      -13.30353        3.59317
C          0.85457      -12.76584        2.44412
C          1.02855      -11.41300        2.14088
H          0.67457        0.92353       -0.40905
H          1.73141       -0.46621       -0.72430
H          1.36606        0.02246        0.95375
H         -1.46112       -4.07524        0.47028
H         -0.63369       -6.48732        1.29982
H          2.32464       -6.57591        2.09635
H          0.05007       -8.70792        2.03993
H          3.00898       -8.79857        2.89223
H          2.95425      -10.52028        4.80262
H          2.64085      -12.90942        5.33051
H          1.29636      -14.35615        3.82811
H          0.27462      -13.40020        1.77893
H          0.58793      -11.01910        1.22840

--Link1--
%chk=JID_7369.chk
%mem=8GB
%nprocshared=4
# B3LYP/6-311++G(d,p) empiricaldispersion=gd3bj scf=xqc pop=npa geom=check

CID_15176044_JID_7369_Energie_neutraal

0 1

--Link1--
%chk=JID_7369.chk
%mem=8GB
%nprocshared=4
# B3LYP/6-311++G(d,p) empiricaldispersion=gd3bj scf=xqc pop=npa geom=check

CID_15176044_JID_7369_Energie_kation

1 2

--Link1--
%chk=JID_7369.chk
%mem=8GB
%nprocshared=4
# B3LYP/6-311++G(d,p) empiricaldispersion=gd3bj scf=xqc pop=npa geom=check

CID_15176044_JID_7369_Energie_anion

-1 2
