%chk=JID_10421.chk
%mem=8GB
%nprocshared=4
# opt freq B3LYP/6-31G(d) empiricaldispersion=gd3bj scf=xqc

CID_81939434_JID_10421_neutraal

0 1
C          0.90834       -0.01356        0.03761
C          1.19258       -1.22719        0.91315
C          2.01823       -0.88605        2.16172
C          1.28971       -0.02111        3.17007
C          1.65812        1.32306        3.33704
N          0.92663        2.20629        4.05023
C         -0.19113        1.74971        4.60673
N         -0.62749        0.49375        4.54694
C          0.13140       -0.39535        3.86107
N         -0.34733       -1.74141        3.91490
C          0.39189       -2.90713        3.96605
N         -0.34979       -3.99406        4.02341
C         -1.62596       -3.52988        4.09930
C         -1.65952       -2.15349        4.06033
C         -2.89251       -1.32393        4.13204
C         -4.13243       -2.21034        3.88541
C         -4.05375       -3.55925        4.62844
C         -2.83102       -4.39130        4.19454
N          2.82946        1.82626        2.69624
N          3.08298        3.21925        2.83796
H          0.27312        0.71246        0.55396
H          0.38759       -0.32262       -0.87436
H          1.83711        0.48557       -0.25636
H          0.24513       -1.70711        1.17861
H          1.75577       -1.95565        0.31713
H          2.37389       -1.80180        2.63532
H          2.94720       -0.41500        1.82238
H         -0.79464        2.45840        5.16250
H          1.46897       -2.91880        4.02462
H         -2.87713       -0.51714        3.39176
H         -2.96801       -0.87376        5.12878
H         -4.22990       -2.40626        2.80955
H         -5.03336       -1.66726        4.19277
H         -3.99842       -3.36529        5.70753
H         -4.96850       -4.13676        4.45381
H         -2.66585       -5.20815        4.90502
H         -3.02375       -4.83893        3.21255
H          3.62883        1.24601        2.96292
H          2.40779        3.72513        2.25538
H          2.81356        3.49926        3.79015

--Link1--
%chk=JID_10421.chk
%mem=8GB
%nprocshared=4
# B3LYP/6-311++G(d,p) empiricaldispersion=gd3bj scf=xqc pop=npa geom=check

CID_81939434_JID_10421_Energie_neutraal

0 1

--Link1--
%chk=JID_10421.chk
%mem=8GB
%nprocshared=4
# B3LYP/6-311++G(d,p) empiricaldispersion=gd3bj scf=xqc pop=npa geom=check

CID_81939434_JID_10421_Energie_kation

1 2

--Link1--
%chk=JID_10421.chk
%mem=8GB
%nprocshared=4
# B3LYP/6-311++G(d,p) empiricaldispersion=gd3bj scf=xqc pop=npa geom=check

CID_81939434_JID_10421_Energie_anion

-1 2
