%chk=JID_10487.chk
%mem=8GB
%nprocshared=4
# opt freq B3LYP/6-31G(d) empiricaldispersion=gd3bj scf=xqc

CID_106397459_JID_10487_neutraal

0 1
C         -2.49800        0.71200        0.27900
C         -2.45345       -0.79783        0.06293
C         -1.13856       -1.40237        0.55265
C          0.06798       -0.71005       -0.09520
C          0.02630        0.80830        0.16527
C         -1.29026        1.41002       -0.34292
C          1.23284        1.49343       -0.48593
C          2.53305        0.85191       -0.00854
C          2.50073       -0.67090       -0.17739
N          1.30508       -1.29855        0.43245
C          3.79039       -1.31669        0.36899
O          4.63837       -1.76982       -0.40577
N          4.05918       -1.36646        1.70684
C          3.18169       -1.10309        2.83994
C          2.49785       -2.36311        3.37097
C          3.45026       -3.22111        4.11377
N          4.19814       -4.21387        3.68740
C          4.85122       -4.58346        4.82840
N          4.55195       -3.87096        5.91769
O          3.60941       -2.95454        5.44423
H         -3.42022        1.11871       -0.15105
H         -2.52678        0.92474        1.35481
H         -3.29287       -1.26957        0.58610
H         -2.57919       -1.01670       -1.00465
H         -1.08525       -1.31144        1.64571
H         -1.12921       -2.47490        0.32225
H          0.02326       -0.89512       -1.17788
H          0.08069        0.98384        1.24998
H         -1.34509        1.32324       -1.43554
H         -1.32903        2.47992       -0.10633
H          1.24011        2.56290       -0.24540
H          1.16754        1.41169       -1.57836
H          2.70830        1.13507        1.03490
H          3.37431        1.26852       -0.57621
H          2.48135       -0.90023       -1.25228
H          1.32404       -2.29449        0.20136
H          4.93018       -1.85008        1.90002
H          3.80477       -0.64183        3.61491
H          2.42221       -0.37115        2.56212
H          1.68269       -2.07226        4.04406
H          2.05246       -2.94362        2.55638
H          5.56717       -5.39261        4.86961

--Link1--
%chk=JID_10487.chk
%mem=8GB
%nprocshared=4
# B3LYP/6-311++G(d,p) empiricaldispersion=gd3bj scf=xqc pop=npa geom=check

CID_106397459_JID_10487_Energie_neutraal

0 1

--Link1--
%chk=JID_10487.chk
%mem=8GB
%nprocshared=4
# B3LYP/6-311++G(d,p) empiricaldispersion=gd3bj scf=xqc pop=npa geom=check

CID_106397459_JID_10487_Energie_kation

1 2

--Link1--
%chk=JID_10487.chk
%mem=8GB
%nprocshared=4
# B3LYP/6-311++G(d,p) empiricaldispersion=gd3bj scf=xqc pop=npa geom=check

CID_106397459_JID_10487_Energie_anion

-1 2
