%chk=JID_6320.chk
%mem=8GB
%nprocshared=4
# opt freq B3LYP/6-31G(d) empiricaldispersion=gd3bj scf=xqc

CID_106732659_JID_6320_neutraal

0 1
C          0.98983        0.09894       -0.01033
C         -0.27962       -0.34726        0.69669
N         -0.01953       -1.29240        1.76563
C          0.61393       -1.02551        2.94703
C          0.70152       -2.22972        3.59538
C         -0.00125       -3.13947        2.78811
N         -0.41970       -2.57732        1.64897
O          1.31267       -2.48880        4.77156
C          2.64208       -1.94301        4.85625
C          3.60848       -2.73818        3.98794
S          4.51176       -1.68878        2.85766
O          3.60842       -0.71063        2.28056
O          5.69820       -1.23274        3.55828
C          5.04157       -2.77444        1.51964
C          5.90829       -3.91922        2.02850
C          3.86232       -3.29409        0.70119
H          1.65810        0.63340        0.67220
H          0.74473        0.77270       -0.83719
H          1.53705       -0.75754       -0.41697
H         -0.79844        0.50870        1.14131
H         -0.96241       -0.82272       -0.01631
H          0.97687       -0.03542        3.18279
H         -0.19423       -4.18903        2.96321
H          2.64290       -0.86183        4.67901
H          2.93949       -2.06797        5.90418
H          4.36101       -3.23233        4.61201
H          3.09497       -3.50856        3.41160
H          5.65314       -2.13551        0.87045
H          5.35044       -4.58315        2.69625
H          6.28149       -4.52080        1.19293
H          6.77474       -3.54198        2.58091
H          3.23613       -2.47336        0.33855
H          4.21715       -3.85101       -0.17249
H          3.22329       -3.96603        1.28141

--Link1--
%chk=JID_6320.chk
%mem=8GB
%nprocshared=4
# B3LYP/6-311++G(d,p) empiricaldispersion=gd3bj scf=xqc pop=npa geom=check

CID_106732659_JID_6320_Energie_neutraal

0 1

--Link1--
%chk=JID_6320.chk
%mem=8GB
%nprocshared=4
# B3LYP/6-311++G(d,p) empiricaldispersion=gd3bj scf=xqc pop=npa geom=check

CID_106732659_JID_6320_Energie_kation

1 2

--Link1--
%chk=JID_6320.chk
%mem=8GB
%nprocshared=4
# B3LYP/6-311++G(d,p) empiricaldispersion=gd3bj scf=xqc pop=npa geom=check

CID_106732659_JID_6320_Energie_anion

-1 2
