%chk=JID_8399.chk
%mem=8GB
%nprocshared=4
# opt freq B3LYP/6-31G(d) empiricaldispersion=gd3bj scf=xqc

CID_121778593_JID_8399_neutraal

0 1
C         -1.23900       -0.77500       -0.51200
C         -1.36010        0.75161       -0.43576
C         -0.26092        1.14208        0.58055
C          1.09527        1.00094       -0.17447
C          1.24566       -0.51733       -0.35462
C         -0.00056       -1.07064        0.34924
C         -0.18246       -0.08192        1.50031
C         -0.40584        2.52472        1.19984
S         -1.58361        2.76402        2.53064
O         -1.36105        1.78983        3.57429
O         -1.58719        4.18019        2.83310
N         -3.08065        2.49213        1.83465
C         -3.79450        1.23309        2.10434
C         -4.60946        1.31657        3.39381
C         -6.00993        1.89018        3.17807
C         -6.91387        0.91714        2.46639
O         -6.60458       -0.15521        1.97626
O         -8.18125        1.36415        2.39391
H         -2.12952       -1.24595       -0.07984
H         -1.13110       -1.12841       -1.54218
H         -1.19370        1.21302       -1.41599
H         -2.36609        1.02688       -0.12472
H          1.10182        1.52808       -1.13443
H          1.93104        1.38423        0.42344
H          1.29565       -0.80521       -1.40944
H          2.15965       -0.86609        0.13922
H          0.08812       -2.11918        0.64029
H          0.67258       -0.05692        2.18502
H         -1.09072       -0.28975        2.06703
H          0.55056        2.82845        1.64496
H         -0.64284        3.26905        0.43073
H         -3.64227        3.34411        1.80155
H         -4.42890        1.02207        1.23766
H         -3.08866        0.40374        2.16897
H         -4.69979        0.30703        3.81418
H         -4.08664        1.92441        4.14118
H         -6.45588        2.09615        4.15768
H         -5.96603        2.82159        2.60490
H         -8.66258        0.65085        1.92352

--Link1--
%chk=JID_8399.chk
%mem=8GB
%nprocshared=4
# B3LYP/6-311++G(d,p) empiricaldispersion=gd3bj scf=xqc pop=npa geom=check

CID_121778593_JID_8399_Energie_neutraal

0 1

--Link1--
%chk=JID_8399.chk
%mem=8GB
%nprocshared=4
# B3LYP/6-311++G(d,p) empiricaldispersion=gd3bj scf=xqc pop=npa geom=check

CID_121778593_JID_8399_Energie_kation

1 2

--Link1--
%chk=JID_8399.chk
%mem=8GB
%nprocshared=4
# B3LYP/6-311++G(d,p) empiricaldispersion=gd3bj scf=xqc pop=npa geom=check

CID_121778593_JID_8399_Energie_anion

-1 2
