%chk=JID_3337.chk
%mem=8GB
%nprocshared=4
# opt freq B3LYP/6-31G(d) empiricaldispersion=gd3bj scf=xqc

CID_22157777_JID_3337_neutraal

0 1
C          0.96539        0.06868        0.06392
C          0.33136       -1.09059        0.82812
C          0.77147       -0.99558        2.30140
C         -1.21991       -1.16631        0.73686
C         -1.90216       -1.29467       -0.67168
C         -1.26128       -2.41464       -1.51440
C         -3.39557       -1.66698       -0.46787
C         -1.86805        0.01932       -1.49451
O         -2.25722        1.14809       -0.69473
C         -3.45132        1.73134       -0.98526
O         -4.22057        1.38959       -1.87118
C         -3.69121        2.88185       -0.05596
O         -1.62810       -2.28804        1.54423
H          0.44403        1.01115        0.25775
H          0.97345       -0.12499       -1.01071
H          2.01413        0.20419        0.35205
H          0.75582       -2.02786        0.44594
H          0.36904       -0.09358        2.77502
H          0.43662       -1.86304        2.87896
H          1.86365       -0.96088        2.38075
H         -1.63562       -0.28807        1.24554
H         -1.28955       -3.37844       -0.99553
H         -1.79012       -2.54096       -2.46644
H         -0.21646       -2.19196       -1.75289
H         -3.89535       -0.95603        0.19903
H         -3.93755       -1.66933       -1.42078
H         -3.51078       -2.66758       -0.03645
H         -0.86624        0.23249       -1.87074
H         -2.48772       -0.07561       -2.39548
H         -3.63404        2.54025        0.98084
H         -2.95530        3.66762       -0.24325
H         -4.69234        3.28623       -0.23031
H         -1.18561       -3.08365        1.20370

--Link1--
%chk=JID_3337.chk
%mem=8GB
%nprocshared=4
# B3LYP/6-311++G(d,p) empiricaldispersion=gd3bj scf=xqc pop=npa geom=check

CID_22157777_JID_3337_Energie_neutraal

0 1

--Link1--
%chk=JID_3337.chk
%mem=8GB
%nprocshared=4
# B3LYP/6-311++G(d,p) empiricaldispersion=gd3bj scf=xqc pop=npa geom=check

CID_22157777_JID_3337_Energie_kation

1 2

--Link1--
%chk=JID_3337.chk
%mem=8GB
%nprocshared=4
# B3LYP/6-311++G(d,p) empiricaldispersion=gd3bj scf=xqc pop=npa geom=check

CID_22157777_JID_3337_Energie_anion

-1 2
