%chk=JID_8078.chk
%mem=8GB
%nprocshared=4
# opt freq B3LYP/6-31G(d) empiricaldispersion=gd3bj scf=xqc

CID_111890897_JID_8078_neutraal

0 1
C          1.01999       -0.09152        0.03500
C          0.51872        0.60701       -1.22189
C          0.74926       -0.19977       -2.51959
C          0.11165       -1.60707       -2.49141
C         -1.39970       -1.62732       -2.30853
C          0.26257        0.59033       -3.75568
N          1.19288        1.67478       -4.06809
C          1.10043        2.37577       -5.23745
N          1.16849        3.65153       -5.39833
C          1.36329        4.50069       -4.23596
N          0.92171        1.62803       -6.36265
C          1.89724        0.60665       -6.73031
C          1.32943       -0.25321       -7.85743
C          2.33303       -1.27096       -8.41067
C          2.88191       -2.25193       -7.37649
O          1.79630       -2.89900       -6.71982
C          2.19928       -3.73560       -5.63784
C          2.80796       -5.03907       -6.12297
H          0.43303       -0.98637        0.26061
H          0.93650        0.58076        0.89517
H          2.07076       -0.37978       -0.06818
H         -0.54466        0.84443       -1.10185
H          1.04039        1.56832       -1.29294
H          1.83294       -0.35338       -2.62411
H          0.35352       -2.12363       -3.42880
H          0.57302       -2.20659       -1.69825
H         -1.90884       -1.08113       -3.10782
H         -1.76244       -2.66029       -2.33005
H         -1.69525       -1.19459       -1.34867
H          0.17874       -0.09446       -4.60598
H         -0.73414        1.01140       -3.57879
H          1.32196        2.28513       -3.27328
H          0.53688        4.40379       -3.52417
H          2.31276        4.28478       -3.73514
H          1.39502        5.54606       -4.55865
H          0.79432        2.27933       -7.13367
H          2.82207        1.09558       -7.05818
H          2.14401       -0.02214       -5.86941
H          0.42783       -0.77020       -7.50548
H          1.00460        0.39269       -8.68342
H          1.82355       -1.84080       -9.19781
H          3.16912       -0.74489       -8.88603
H          3.50216       -2.99477       -7.88869
H          3.50712       -1.72758       -6.64562
H          2.88396       -3.19828       -4.97205
H          1.29640       -3.96204       -5.06124
H          3.76562       -4.86863       -6.62379
H          2.98101       -5.71853       -5.28324
H          2.14760       -5.52892       -6.84577

--Link1--
%chk=JID_8078.chk
%mem=8GB
%nprocshared=4
# B3LYP/6-311++G(d,p) empiricaldispersion=gd3bj scf=xqc pop=npa geom=check

CID_111890897_JID_8078_Energie_neutraal

0 1

--Link1--
%chk=JID_8078.chk
%mem=8GB
%nprocshared=4
# B3LYP/6-311++G(d,p) empiricaldispersion=gd3bj scf=xqc pop=npa geom=check

CID_111890897_JID_8078_Energie_kation

1 2

--Link1--
%chk=JID_8078.chk
%mem=8GB
%nprocshared=4
# B3LYP/6-311++G(d,p) empiricaldispersion=gd3bj scf=xqc pop=npa geom=check

CID_111890897_JID_8078_Energie_anion

-1 2
