%chk=JID_5032.chk
%mem=8GB
%nprocshared=4
# opt freq B3LYP/6-31G(d) empiricaldispersion=gd3bj scf=xqc

CID_104523155_JID_5032_neutraal

0 1
C          0.93526        0.06329       -0.04247
C         -0.04279       -0.64917        0.91071
C         -1.46756       -0.08902        0.73502
C         -2.12933       -0.53904       -0.56051
C         -2.06461       -2.05973       -0.67820
C         -0.63060       -2.57383       -0.50044
N          0.06876       -2.11108        0.71358
C         -0.00017       -2.97945        1.93401
C         -1.36085       -2.95052        2.65482
C          0.29732       -4.46010        1.56607
C          1.09802       -2.56599        2.99322
N          2.44672       -2.43291        2.42507
C         -2.64868       -2.54691       -1.99454
O         -3.58820       -3.33422       -2.04930
N         -2.07542       -2.08724       -3.14097
H          0.93012        1.14272        0.14644
H          0.68551       -0.08589       -1.09724
H          1.96140       -0.28697        0.11021
H          0.28255       -0.36322        1.91461
H         -2.09647       -0.40012        1.57577
H         -1.44550        1.00732        0.76695
H         -1.64084       -0.05121       -1.41148
H         -3.17385       -0.20474       -0.57903
H         -2.70028       -2.48645        0.10571
H         -0.02651       -2.24526       -1.35654
H         -0.62103       -3.66236       -0.60421
H         -2.17434       -3.29661        2.01260
H         -1.34896       -3.61509        3.52773
H         -1.60709       -1.95236        3.02642
H          1.18379       -4.54837        0.92744
H          0.48344       -5.06122        2.46441
H         -0.54441       -4.93547        1.05110
H          0.83444       -1.61753        3.47357
H          1.13820       -3.30154        3.80640
H          2.78734       -3.35956        2.17201
H          2.33196       -1.96021        1.52477
H         -1.33301       -1.40332       -3.16709
H         -2.47698       -2.39685       -4.01709

--Link1--
%chk=JID_5032.chk
%mem=8GB
%nprocshared=4
# B3LYP/6-311++G(d,p) empiricaldispersion=gd3bj scf=xqc pop=npa geom=check

CID_104523155_JID_5032_Energie_neutraal

0 1

--Link1--
%chk=JID_5032.chk
%mem=8GB
%nprocshared=4
# B3LYP/6-311++G(d,p) empiricaldispersion=gd3bj scf=xqc pop=npa geom=check

CID_104523155_JID_5032_Energie_kation

1 2

--Link1--
%chk=JID_5032.chk
%mem=8GB
%nprocshared=4
# B3LYP/6-311++G(d,p) empiricaldispersion=gd3bj scf=xqc pop=npa geom=check

CID_104523155_JID_5032_Energie_anion

-1 2
