%chk=JID_2085.chk
%mem=8GB
%nprocshared=4
# opt freq B3LYP/6-31G(d) empiricaldispersion=gd3bj scf=xqc

CID_83846115_JID_2085_neutraal

0 1
C          1.09824        0.01815        0.00446
N          0.35548       -0.50630       -1.13293
C         -1.08672       -0.74229       -0.90289
C         -1.81358        0.57577       -0.57344
C         -3.33958        0.51001       -0.59829
C         -3.96514       -0.56757        0.28643
N         -3.80843       -1.88108       -0.33092
C         -2.59952       -2.61002        0.03941
C         -1.30301       -1.80401        0.18652
C         -5.06391       -2.65098       -0.39187
C         -5.15095       -4.14500       -0.24032
C         -5.65841       -3.25190        0.85438
H          1.03902       -0.63977        0.87611
H          0.76773        1.02194        0.28618
H          2.15654        0.09081       -0.26692
H          0.46269        0.13203       -1.92150
H         -1.47530       -1.12891       -1.85348
H         -1.50646        1.34987       -1.28928
H         -1.50851        0.93582        0.41751
H         -3.72277        1.48643       -0.27484
H         -3.68033        0.38374       -1.63447
H         -3.57314       -0.53827        1.31018
H         -5.03178       -0.31970        0.37213
H         -2.41997       -3.37371       -0.72820
H         -2.75072       -3.14434        0.98581
H         -0.48008       -2.53184        0.16780
H         -1.27098       -1.33857        1.18024
H         -5.77679       -2.22244       -1.09720
H         -5.88143       -4.66677       -0.84907
H         -4.26239       -4.73000       -0.04377
H         -5.09278       -3.20817        1.77705
H         -6.73054       -3.17059        0.98955

--Link1--
%chk=JID_2085.chk
%mem=8GB
%nprocshared=4
# B3LYP/6-311++G(d,p) empiricaldispersion=gd3bj scf=xqc pop=npa geom=check

CID_83846115_JID_2085_Energie_neutraal

0 1

--Link1--
%chk=JID_2085.chk
%mem=8GB
%nprocshared=4
# B3LYP/6-311++G(d,p) empiricaldispersion=gd3bj scf=xqc pop=npa geom=check

CID_83846115_JID_2085_Energie_kation

1 2

--Link1--
%chk=JID_2085.chk
%mem=8GB
%nprocshared=4
# B3LYP/6-311++G(d,p) empiricaldispersion=gd3bj scf=xqc pop=npa geom=check

CID_83846115_JID_2085_Energie_anion

-1 2
