%chk=JID_5205.chk
%mem=8GB
%nprocshared=4
# opt freq B3LYP/6-31G(d) empiricaldispersion=gd3bj scf=xqc

CID_115252593_JID_5205_neutraal

0 1
C          0.93528       -0.06413        0.04121
C          0.58899        1.08778       -0.90946
C          1.21865        0.73992       -2.26997
C         -0.94089        1.39101       -1.05760
C         -1.81125        0.98293        0.15954
N         -1.59040        1.78745        1.35802
C         -1.22777        2.89140       -1.37503
N         -0.75125        3.33706       -2.68476
C         -1.81450        3.83785       -3.54274
C          0.45463        4.16958       -2.67208
C          0.37640        5.71067       -2.61325
C          0.14226        6.43343       -1.25789
C          1.01385        5.85287       -0.13282
C          0.54934        7.91474       -1.44490
C         -1.33711        6.42355       -0.84625
H          0.43512       -0.99139       -0.25858
H          0.66470        0.15613        1.07621
H          2.01461       -0.25593        0.03916
H          1.08980        1.98051       -0.51598
H          0.80862       -0.19794       -2.66180
H          1.05356        1.50884       -3.02440
H          2.30275        0.61393       -2.17187
H         -1.32089        0.79526       -1.90028
H         -2.86834        1.08302       -0.11688
H         -1.66855       -0.07674        0.39609
H         -2.14249        1.40732        2.12536
H         -0.61639        1.72954        1.65033
H         -2.31298        3.05004       -1.30657
H         -0.79751        3.49931       -0.57671
H         -2.29889        4.72914       -3.13142
H         -1.43116        4.07835       -4.54055
H         -2.58383        3.07021       -3.68485
H          1.16618        3.80795       -1.92246
H          0.95497        3.94549       -3.62553
H          1.35047        6.05403       -2.99382
H         -0.34583        6.07769       -3.35345
H          2.07041        5.83525       -0.42328
H          0.93207        6.45450        0.77981
H          0.72560        4.83349        0.13341
H         -0.03265        8.38737       -2.24406
H          0.38631        8.49143       -0.52711
H          1.61038        8.00508       -1.70494
H         -1.96805        6.85280       -1.63257
H         -1.70923        5.42217       -0.63483
H         -1.49499        7.01784        0.06154

--Link1--
%chk=JID_5205.chk
%mem=8GB
%nprocshared=4
# B3LYP/6-311++G(d,p) empiricaldispersion=gd3bj scf=xqc pop=npa geom=check

CID_115252593_JID_5205_Energie_neutraal

0 1

--Link1--
%chk=JID_5205.chk
%mem=8GB
%nprocshared=4
# B3LYP/6-311++G(d,p) empiricaldispersion=gd3bj scf=xqc pop=npa geom=check

CID_115252593_JID_5205_Energie_kation

1 2

--Link1--
%chk=JID_5205.chk
%mem=8GB
%nprocshared=4
# B3LYP/6-311++G(d,p) empiricaldispersion=gd3bj scf=xqc pop=npa geom=check

CID_115252593_JID_5205_Energie_anion

-1 2
