%chk=JID_6717.chk
%mem=8GB
%nprocshared=4
# opt freq B3LYP/6-31G(d) empiricaldispersion=gd3bj scf=xqc

CID_15313242_JID_6717_neutraal

0 1
C          1.08039        0.01826       -0.05661
C          0.23979        0.18947        1.17908
C         -0.18405        1.38794        1.63341
O         -0.93363        1.53282        2.78576
C         -0.70079        0.54714        3.81298
C         -0.70828       -0.85879        3.21844
C         -1.15541       -1.99023        3.92741
C         -1.07837       -3.26200        3.36175
C         -0.55319       -3.42134        2.08550
C         -0.11171       -2.30799        1.36908
C         -0.18776       -1.01912        1.91951
C         -1.83677        0.78572        4.82135
C          0.63133        0.87681        4.54707
O          1.15189        1.99772        4.51744
C          1.27102       -0.20675        5.38384
C          0.07735        2.69602        0.94593
H          1.47840        0.96485       -0.43393
H          0.49537       -0.43518       -0.86364
H          1.94821       -0.61736        0.15212
H         -1.56100       -1.90439        4.93205
H         -1.42664       -4.12874        3.91819
H         -0.49301       -4.41136        1.64047
H          0.27627       -2.46871        0.36680
H         -1.73151        0.18769        5.73207
H         -1.86516        1.83876        5.12847
H         -2.81311        0.56640        4.37284
H          0.54838       -0.61316        6.09468
H          1.66685       -0.99563        4.74054
H          2.10252        0.21955        5.95350
H          1.11634        3.00531        1.09663
H         -0.12969        2.63243       -0.12698
H         -0.56730        3.48485        1.34883

--Link1--
%chk=JID_6717.chk
%mem=8GB
%nprocshared=4
# B3LYP/6-311++G(d,p) empiricaldispersion=gd3bj scf=xqc pop=npa geom=check

CID_15313242_JID_6717_Energie_neutraal

0 1

--Link1--
%chk=JID_6717.chk
%mem=8GB
%nprocshared=4
# B3LYP/6-311++G(d,p) empiricaldispersion=gd3bj scf=xqc pop=npa geom=check

CID_15313242_JID_6717_Energie_kation

1 2

--Link1--
%chk=JID_6717.chk
%mem=8GB
%nprocshared=4
# B3LYP/6-311++G(d,p) empiricaldispersion=gd3bj scf=xqc pop=npa geom=check

CID_15313242_JID_6717_Energie_anion

-1 2
