%chk=JID_7453.chk
%mem=8GB
%nprocshared=4
# opt freq B3LYP/6-31G(d) empiricaldispersion=gd3bj scf=xqc

CID_106246104_JID_7453_neutraal

0 1
C          1.06165        0.02536       -0.07454
C          0.80006        0.98084       -1.19970
C          0.11315        0.57022       -2.31734
C         -0.03350        1.52076       -3.30035
N          0.45472        2.77348       -3.21557
C          1.11368        3.08481       -2.09639
N          1.29890        2.22866       -1.08331
N          1.68771        4.33428       -1.94045
C          1.13388        5.43143       -2.72573
C         -0.07313        6.14042       -2.05270
C          0.41667        6.99229       -0.87159
C         -0.81565        7.05996       -3.05694
S         -1.90242        6.16693       -4.24291
C         -0.85091        6.14721       -5.71681
O         -1.00172        5.19294       -1.50311
C         -0.72922        1.21033       -4.51705
N         -1.29581        0.92347       -5.49039
H          0.13446       -0.46959        0.23120
H          1.46559        0.55189        0.79620
H          1.78739       -0.73178       -0.38684
H         -0.28013       -0.43310       -2.41755
H          1.77157        4.48856       -0.94133
H          1.93279        6.16724       -2.88292
H          0.87899        5.08075       -3.72747
H          1.12993        7.75795       -1.19411
H         -0.42441        7.49240       -0.37694
H          0.89258        6.37364       -0.10324
H         -1.50465        7.70663       -2.50089
H         -0.12103        7.71959       -3.58808
H         -0.37959        7.11965       -5.87809
H         -0.08741        5.37120       -5.63991
H         -1.47218        5.91879       -6.58735
H         -1.42312        4.75115       -2.26674

--Link1--
%chk=JID_7453.chk
%mem=8GB
%nprocshared=4
# B3LYP/6-311++G(d,p) empiricaldispersion=gd3bj scf=xqc pop=npa geom=check

CID_106246104_JID_7453_Energie_neutraal

0 1

--Link1--
%chk=JID_7453.chk
%mem=8GB
%nprocshared=4
# B3LYP/6-311++G(d,p) empiricaldispersion=gd3bj scf=xqc pop=npa geom=check

CID_106246104_JID_7453_Energie_kation

1 2

--Link1--
%chk=JID_7453.chk
%mem=8GB
%nprocshared=4
# B3LYP/6-311++G(d,p) empiricaldispersion=gd3bj scf=xqc pop=npa geom=check

CID_106246104_JID_7453_Energie_anion

-1 2
