%chk=JID_7914.chk
%mem=8GB
%nprocshared=4
# opt freq B3LYP/6-31G(d) empiricaldispersion=gd3bj scf=xqc

CID_123831912_JID_7914_neutraal

0 1
C          0.95502        0.08930        0.00169
C          0.87686       -1.39298       -0.34115
C          1.23251       -2.33315        0.76998
C          1.57190       -2.06468        2.03802
C          1.90641       -3.30166        2.80488
C          1.34528       -4.41728        1.91281
C          1.28355       -3.80992        0.50086
C          2.16132       -5.71704        1.95302
C          2.26660       -6.38243        3.34854
C          0.89721       -6.74990        3.96310
C          0.10017       -7.71842        3.17174
N          0.18403       -9.04887        3.32137
N         -0.72069       -9.43597        2.40658
N         -1.32101       -8.45208        1.72523
N         -0.80191       -7.33568        2.21658
C          3.18950       -7.62233        3.32093
N          4.58304       -7.26759        3.05800
H          0.26445        0.34775        0.81130
H          0.68533        0.69109       -0.87239
H          1.96792        0.37454        0.30487
H         -0.14152       -1.61959       -0.67886
H          1.54532       -1.58533       -1.18904
H          1.64223       -1.07643        2.47162
H          1.42257       -3.30558        3.78644
H          2.99039       -3.37325        2.94318
H          0.31263       -4.62613        2.22323
H          2.16646       -4.05271       -0.10063
H          0.38969       -4.15891       -0.02668
H          1.73616       -6.42950        1.23494
H          3.16951       -5.48967        1.58567
H          2.72424       -5.65528        4.03387
H          1.05715       -7.16023        4.96921
H          0.30248       -5.84203        4.11698
H         -0.93864      -10.41389        2.23702
H          3.15265       -8.13033        4.29127
H          2.85984       -8.33888        2.56075
H          5.15615       -8.10941        3.11506
H          4.68165       -6.93408        2.10016

--Link1--
%chk=JID_7914.chk
%mem=8GB
%nprocshared=4
# B3LYP/6-311++G(d,p) empiricaldispersion=gd3bj scf=xqc pop=npa geom=check

CID_123831912_JID_7914_Energie_neutraal

0 1

--Link1--
%chk=JID_7914.chk
%mem=8GB
%nprocshared=4
# B3LYP/6-311++G(d,p) empiricaldispersion=gd3bj scf=xqc pop=npa geom=check

CID_123831912_JID_7914_Energie_kation

1 2

--Link1--
%chk=JID_7914.chk
%mem=8GB
%nprocshared=4
# B3LYP/6-311++G(d,p) empiricaldispersion=gd3bj scf=xqc pop=npa geom=check

CID_123831912_JID_7914_Energie_anion

-1 2
