%chk=JID_9637.chk
%mem=8GB
%nprocshared=4
# opt freq B3LYP/6-31G(d) empiricaldispersion=gd3bj scf=xqc

CID_47062760_JID_9637_neutraal

0 1
C          0.93704       -0.06022        0.04909
O          0.29223        0.28284       -1.17301
C          0.46260        1.65746       -1.49318
C         -0.39096        2.62611       -0.66671
O          0.11854        3.48152        0.05731
N         -1.75285        2.55047       -0.75794
C         -2.54396        1.51191       -1.40277
C         -2.93325        0.39445       -0.42421
N         -3.69586        0.90502        0.71183
C         -5.00604        1.31794        0.70187
O         -5.39909        2.15141        1.51090
C         -5.93964        0.76720       -0.30255
C         -6.72049        1.64734       -1.05276
C         -7.61514        1.14017       -1.99740
C         -7.75027       -0.23970       -2.18476
C         -6.98737       -1.11577       -1.40937
C         -6.08772       -0.61369       -0.46277
O         -8.65772       -0.59782       -3.14291
C         -8.85742       -1.98991       -3.35436
H          0.77269       -1.12525        0.23377
H          0.51383        0.50518        0.88458
H          2.01434        0.11794       -0.02191
H          1.51783        1.94220       -1.40194
H          0.19550        1.79476       -2.54674
H         -2.24081        3.21428       -0.16629
H         -3.44001        2.00510       -1.79394
H         -1.99648        1.09337       -2.25102
H         -3.50525       -0.37027       -0.95287
H         -2.04473       -0.08300       -0.00242
H         -3.15808        1.38190        1.42736
H         -6.63708        2.72109       -0.90307
H         -8.22012        1.82505       -2.58741
H         -7.07437       -2.19262       -1.50989
H         -5.51527       -1.30168        0.15463
H         -7.93799       -2.47161       -3.70326
H         -9.24067       -2.47560       -2.45086
H         -9.61134       -2.10417       -4.13914

--Link1--
%chk=JID_9637.chk
%mem=8GB
%nprocshared=4
# B3LYP/6-311++G(d,p) empiricaldispersion=gd3bj scf=xqc pop=npa geom=check

CID_47062760_JID_9637_Energie_neutraal

0 1

--Link1--
%chk=JID_9637.chk
%mem=8GB
%nprocshared=4
# B3LYP/6-311++G(d,p) empiricaldispersion=gd3bj scf=xqc pop=npa geom=check

CID_47062760_JID_9637_Energie_kation

1 2

--Link1--
%chk=JID_9637.chk
%mem=8GB
%nprocshared=4
# B3LYP/6-311++G(d,p) empiricaldispersion=gd3bj scf=xqc pop=npa geom=check

CID_47062760_JID_9637_Energie_anion

-1 2
