%chk=JID_10755.chk
%mem=8GB
%nprocshared=4
# opt freq B3LYP/6-31G(d) empiricaldispersion=gd3bj scf=xqc

CID_116386802_JID_10755_neutraal

0 1
C          0.95857       -0.05963        0.06876
C          0.56513        1.09473        0.96856
C         -0.23206        0.92600        2.05240
C         -0.41319        2.16377        2.87884
N          0.12832        3.30367        2.61931
C          0.91220        3.45826        1.51785
O          1.43742        4.54527        1.28546
N          1.09889        2.35774        0.67173
C          1.85178        2.64082       -0.55762
C          0.94859        3.19089       -1.62199
C          0.47222        4.48053       -1.77887
N         -0.32592        4.70104       -2.88539
C         -0.44984        3.58015       -3.55802
S          0.38789        2.22513       -2.92752
C         -1.28842        2.16279        4.11783
C         -0.90824       -0.38336        2.43495
C         -0.13864       -1.11422        3.53751
C         -2.40203       -0.21412        2.68724
O         -3.16293        0.48801        2.04040
O         -2.88361       -0.97653        3.68600
H          0.46077        0.01482       -0.90039
H          0.72419       -1.04341        0.47937
H          2.04306       -0.08854       -0.07801
H          2.63691        3.37804       -0.34504
H          2.39227        1.75969       -0.91157
H          0.68074        5.30813       -1.10876
H         -1.04001        3.51341       -4.46256
H         -2.32375        2.36401        3.82956
H         -1.23078        1.23042        4.67453
H         -0.96841        2.96172        4.79592
H         -0.91766       -1.06508        1.57709
H         -0.17295       -0.59212        4.49698
H         -0.55324       -2.11534        3.70121
H          0.91476       -1.23935        3.26265
H         -3.84624       -0.78442        3.69550

--Link1--
%chk=JID_10755.chk
%mem=8GB
%nprocshared=4
# B3LYP/6-311++G(d,p) empiricaldispersion=gd3bj scf=xqc pop=npa geom=check

CID_116386802_JID_10755_Energie_neutraal

0 1

--Link1--
%chk=JID_10755.chk
%mem=8GB
%nprocshared=4
# B3LYP/6-311++G(d,p) empiricaldispersion=gd3bj scf=xqc pop=npa geom=check

CID_116386802_JID_10755_Energie_kation

1 2

--Link1--
%chk=JID_10755.chk
%mem=8GB
%nprocshared=4
# B3LYP/6-311++G(d,p) empiricaldispersion=gd3bj scf=xqc pop=npa geom=check

CID_116386802_JID_10755_Energie_anion

-1 2
