%chk=JID_9583.chk
%mem=8GB
%nprocshared=4
# opt freq B3LYP/6-31G(d) empiricaldispersion=gd3bj scf=xqc

CID_81416647_JID_9583_neutraal

0 1
C          1.08648       -0.02067        0.04575
C          0.85212       -1.50848        0.26503
C          0.99740       -1.92769        1.73480
C         -0.16978       -1.69193        2.80708
C         -0.20200       -3.22450        3.12331
C          0.69103       -3.45580        1.91441
O          1.04172       -4.46332        1.33422
C         -1.62980       -1.04787        2.57254
C         -2.12576       -0.45995        1.40401
C         -3.42039        0.08256        1.31799
C         -4.30836        0.06256        2.40261
C         -3.83394       -0.51474        3.58159
C         -2.53739       -1.04668        3.65630
C         -5.71371        0.67063        2.27343
C         -5.58922        2.19248        2.05030
C         -6.45877        0.04163        1.07524
C         -6.60173        0.45544        3.51996
C          2.37669       -1.55051        2.34532
C          3.56109       -2.12861        1.58401
H          0.54044        0.59479        0.76580
H          0.77455        0.26497       -0.96383
H          2.14754        0.23033        0.14119
H         -0.13037       -1.80166       -0.11781
H          1.56456       -2.06334       -0.35813
H          0.24696       -1.14858        3.67334
H         -1.17394       -3.71804        3.03875
H          0.27149       -3.50619        4.06839
H         -1.52378       -0.39092        0.50850
H         -3.71734        0.53065        0.37147
H         -4.44734       -0.56820        4.47660
H         -2.22207       -1.48001        4.60589
H         -5.04700        2.43044        1.12831
H         -6.57632        2.66349        1.97610
H         -5.05311        2.67056        2.87885
H         -6.52196       -1.04811        1.17807
H         -7.48139        0.42944        0.99812
H         -5.96672        0.25502        0.12022
H         -6.73592       -0.61050        3.73834
H         -6.17595        0.93510        4.40889
H         -7.59996        0.88509        3.37296
H          2.47490       -0.46029        2.40341
H          2.43843       -1.91471        3.37928
H          3.63380       -1.72094        0.57207
H          4.49319       -1.88335        2.10361
H          3.49697       -3.21779        1.50725

--Link1--
%chk=JID_9583.chk
%mem=8GB
%nprocshared=4
# B3LYP/6-311++G(d,p) empiricaldispersion=gd3bj scf=xqc pop=npa geom=check

CID_81416647_JID_9583_Energie_neutraal

0 1

--Link1--
%chk=JID_9583.chk
%mem=8GB
%nprocshared=4
# B3LYP/6-311++G(d,p) empiricaldispersion=gd3bj scf=xqc pop=npa geom=check

CID_81416647_JID_9583_Energie_kation

1 2

--Link1--
%chk=JID_9583.chk
%mem=8GB
%nprocshared=4
# B3LYP/6-311++G(d,p) empiricaldispersion=gd3bj scf=xqc pop=npa geom=check

CID_81416647_JID_9583_Energie_anion

-1 2
