%chk=JID_6893.chk
%mem=8GB
%nprocshared=4
# opt freq B3LYP/6-31G(d) empiricaldispersion=gd3bj scf=xqc

CID_104461544_JID_6893_neutraal

0 1
C          2.54100        1.06400        0.00800
C          1.28316        0.24941       -0.05435
C          0.09248        0.81026       -0.53338
C         -1.09204        0.06284       -0.56512
C         -1.07551       -1.26021       -0.10546
C          0.10909       -1.83700        0.37180
C          1.27241       -1.06407        0.43266
C          0.04558       -3.22650        0.89149
O         -0.96554       -3.59821        1.48499
N          1.07645       -4.11412        0.72295
C          2.23474       -4.06077       -0.13990
C          3.43826       -4.08986        0.74840
C          4.39933       -5.02751        0.70361
C          5.58008       -5.05834        1.61894
N          5.59649       -6.32366        2.33393
C         -2.37609        0.69878       -1.00990
H          2.53572        1.85388       -0.75043
H          2.64015        1.52493        0.99554
H          3.41859        0.43720       -0.18252
H          0.08232        1.84527       -0.87181
H         -1.99373       -1.84598       -0.10035
H          2.17443       -1.46748        0.87930
H          0.87392       -5.01472        1.13926
H          2.19189       -4.94178       -0.78919
H          2.23025       -3.17738       -0.78011
H          3.51178       -3.29753        1.48945
H          4.34299       -5.82940       -0.02995
H          6.49675       -4.96083        1.02837
H          5.55846       -4.23056        2.33648
H          6.39306       -6.33540        2.96857
H          4.76859       -6.37577        2.92680
H         -2.82569        1.25085       -0.17842
H         -2.19939        1.38924       -1.84110
H         -3.09057       -0.05463       -1.35732

--Link1--
%chk=JID_6893.chk
%mem=8GB
%nprocshared=4
# B3LYP/6-311++G(d,p) empiricaldispersion=gd3bj scf=xqc pop=npa geom=check

CID_104461544_JID_6893_Energie_neutraal

0 1

--Link1--
%chk=JID_6893.chk
%mem=8GB
%nprocshared=4
# B3LYP/6-311++G(d,p) empiricaldispersion=gd3bj scf=xqc pop=npa geom=check

CID_104461544_JID_6893_Energie_kation

1 2

--Link1--
%chk=JID_6893.chk
%mem=8GB
%nprocshared=4
# B3LYP/6-311++G(d,p) empiricaldispersion=gd3bj scf=xqc pop=npa geom=check

CID_104461544_JID_6893_Energie_anion

-1 2
