%chk=JID_9468.chk
%mem=8GB
%nprocshared=4
# opt freq B3LYP/6-31G(d) empiricaldispersion=gd3bj scf=xqc

CID_105365651_JID_9468_neutraal

0 1
C          0.99924       -0.08307       -0.05567
C          0.29547       -0.33497       -1.38255
N          0.81518       -1.56345       -1.98056
C          0.24631       -1.91459       -3.32782
C          0.75263       -0.83830       -4.33211
C          0.99682       -1.39016       -5.73853
N          1.68213       -2.70073       -5.78449
C          0.70467       -3.76388       -6.08808
C          0.09946       -4.14909       -4.74427
C          0.87066       -3.31528       -3.69753
C          2.18164       -3.09892       -4.44988
C         -1.28807       -2.05418       -3.22533
N         -1.88100       -2.89965       -2.39837
C         -3.25918       -2.83239       -2.51052
C         -3.70889       -1.92391       -3.44788
S         -2.38726       -1.14237       -4.19606
C         -4.08761       -3.73190       -1.63462
C         -5.02675       -2.93607       -0.72708
C         -4.86977       -4.75585       -2.45858
H          0.83785       -0.91203        0.64185
H          0.61074        0.82880        0.40929
H          2.07812        0.04413       -0.19559
H         -0.77900       -0.41325       -1.18851
H          0.46369        0.52903       -2.03343
H          1.83020       -1.52008       -2.03642
H          0.10361        0.04324       -4.37935
H          1.71829       -0.43535       -3.98974
H          1.63716       -0.67517       -6.27043
H          0.05689       -1.39818       -6.30369
H          1.23494       -4.62412       -6.51562
H         -0.05178       -3.47368       -6.82562
H          0.28444       -5.21560       -4.56173
H         -0.98316       -4.01512       -4.73701
H          1.01166       -3.92359       -2.79491
H          2.85716       -2.36237       -4.00283
H          2.75271       -4.03369       -4.52910
H         -4.72755       -1.69040       -3.72160
H         -3.40138       -4.29077       -0.98406
H         -5.77103       -2.37726       -1.30543
H         -5.56405       -3.60348       -0.04479
H         -4.46686       -2.21521       -0.12082
H         -4.19623       -5.34540       -3.09072
H         -5.40981       -5.44909       -1.80487
H         -5.60221       -4.27197       -3.11447

--Link1--
%chk=JID_9468.chk
%mem=8GB
%nprocshared=4
# B3LYP/6-311++G(d,p) empiricaldispersion=gd3bj scf=xqc pop=npa geom=check

CID_105365651_JID_9468_Energie_neutraal

0 1

--Link1--
%chk=JID_9468.chk
%mem=8GB
%nprocshared=4
# B3LYP/6-311++G(d,p) empiricaldispersion=gd3bj scf=xqc pop=npa geom=check

CID_105365651_JID_9468_Energie_kation

1 2

--Link1--
%chk=JID_9468.chk
%mem=8GB
%nprocshared=4
# B3LYP/6-311++G(d,p) empiricaldispersion=gd3bj scf=xqc pop=npa geom=check

CID_105365651_JID_9468_Energie_anion

-1 2
