%chk=JID_7050.chk
%mem=8GB
%nprocshared=4
# opt freq B3LYP/6-31G(d) empiricaldispersion=gd3bj scf=xqc

CID_50999627_JID_7050_neutraal

0 1
C          2.54100        1.06400        0.00800
C          1.18273        0.43765       -0.12238
C          0.04772        1.25241       -0.21833
C         -1.23072        0.69357       -0.33323
C         -1.36487       -0.69892       -0.38357
C         -0.24181       -1.53486       -0.28258
C          1.02758       -0.95398       -0.13854
C         -0.39318       -3.03480       -0.32345
N         -0.80118       -3.57468        0.96843
C         -2.08737       -3.75170        1.40839
C         -1.99438       -4.32539        2.65528
C         -0.60727       -4.48125        2.87297
N          0.12556       -4.04492        1.83290
N          0.05981       -5.04927        4.03144
O         -0.68035       -5.43995        4.94809
O          1.29787       -5.11409        4.03583
C         -2.43303        1.58237       -0.45795
H          2.71881        1.75703       -0.82071
H          2.61465        1.60763        0.95521
H          3.33436        0.30968       -0.01302
H          0.16253        2.33493       -0.19987
H         -2.35606       -1.13333       -0.49817
H          1.90445       -1.59328       -0.04198
H         -1.14954       -3.32721       -1.06134
H          0.54382       -3.52609       -0.61117
H         -2.93885       -3.45104        0.81339
H         -2.80534       -4.60029        3.31552
H         -2.33170        2.46203        0.18639
H         -2.55029        1.91057       -1.49516
H         -3.34419        1.05852       -0.15021

--Link1--
%chk=JID_7050.chk
%mem=8GB
%nprocshared=4
# B3LYP/6-311++G(d,p) empiricaldispersion=gd3bj scf=xqc pop=npa geom=check

CID_50999627_JID_7050_Energie_neutraal

0 1

--Link1--
%chk=JID_7050.chk
%mem=8GB
%nprocshared=4
# B3LYP/6-311++G(d,p) empiricaldispersion=gd3bj scf=xqc pop=npa geom=check

CID_50999627_JID_7050_Energie_kation

1 2

--Link1--
%chk=JID_7050.chk
%mem=8GB
%nprocshared=4
# B3LYP/6-311++G(d,p) empiricaldispersion=gd3bj scf=xqc pop=npa geom=check

CID_50999627_JID_7050_Energie_anion

-1 2
