%chk=JID_7087.chk
%mem=8GB
%nprocshared=4
# opt freq B3LYP/6-31G(d) empiricaldispersion=gd3bj scf=xqc

CID_67985124_JID_7087_neutraal

0 1
C          0.93590        0.03699        0.06726
C          0.41990       -0.24771        1.47963
C          0.95684        0.78877        2.47421
C         -1.10000       -0.33695        1.49291
C         -1.87584        0.82943        1.31198
C         -3.28178        0.80377        1.36561
C         -3.91890       -0.41132        1.64952
C         -3.17149       -1.57645        1.80417
C         -1.78227       -1.54163        1.70404
O         -1.15154       -2.74605        1.83270
O         -5.27341       -0.57190        1.76097
N         -4.03123        1.99587        1.16968
C         -3.67984        3.22108        0.58571
C         -4.76520        4.03002        0.84636
N         -5.75445        3.31359        1.44489
N         -5.32808        2.06913        1.58768
N         -2.54398        3.48817       -0.11676
H          0.59810        1.01179       -0.30169
H          0.58679       -0.72554       -0.63795
H          2.03109        0.03431        0.04840
H          0.84689       -1.20501        1.79753
H          0.68984        1.81288        2.19369
H          0.56748        0.60264        3.48130
H          2.05025        0.73879        2.52361
H         -1.35401        1.77404        1.18531
H         -3.67656       -2.51976        1.99633
H         -0.32060       -2.72255        1.33392
H         -5.69971        0.31010        1.78357
H         -4.90151        5.07025        0.58985
H         -2.08888        2.73270       -0.62895
H         -2.49734        4.35839       -0.64640

--Link1--
%chk=JID_7087.chk
%mem=8GB
%nprocshared=4
# B3LYP/6-311++G(d,p) empiricaldispersion=gd3bj scf=xqc pop=npa geom=check

CID_67985124_JID_7087_Energie_neutraal

0 1

--Link1--
%chk=JID_7087.chk
%mem=8GB
%nprocshared=4
# B3LYP/6-311++G(d,p) empiricaldispersion=gd3bj scf=xqc pop=npa geom=check

CID_67985124_JID_7087_Energie_kation

1 2

--Link1--
%chk=JID_7087.chk
%mem=8GB
%nprocshared=4
# B3LYP/6-311++G(d,p) empiricaldispersion=gd3bj scf=xqc pop=npa geom=check

CID_67985124_JID_7087_Energie_anion

-1 2
