%chk=JID_10602.chk
%mem=8GB
%nprocshared=4
# opt freq B3LYP/6-31G(d) empiricaldispersion=gd3bj scf=xqc

CID_79089683_JID_10602_neutraal

0 1
C          1.05950        0.06995        0.03957
C          0.28817       -0.76162       -0.97802
C          1.05257       -2.00878       -1.43280
C          0.69450       -3.33303       -0.70514
C          0.83872       -3.19504        0.81773
C          0.45108       -4.40877        1.65349
C          1.17745       -5.70780        1.31578
N          0.56902       -6.32091        0.13843
C          1.09689       -5.86896       -1.14747
C          1.61958       -4.43273       -1.25949
C          0.46244       -7.79671        0.20654
C          1.79089       -8.52464        0.46810
C         -0.60479       -8.19903        1.19242
C         -1.98201       -8.23538        1.11451
C         -2.44451       -8.66318        2.38192
C         -1.32675       -8.86249        3.17199
O         -0.20435       -8.58939        2.43845
C         -1.16384       -9.27032        4.54075
O         -0.12984       -9.42355        5.17544
O         -2.35777       -9.49150        5.14048
H          1.25572       -0.47224        0.96635
H          0.48868        0.96877        0.29485
H          2.02129        0.39319       -0.37233
H         -0.70145       -1.02521       -0.58945
H          0.11765       -0.12426       -1.85500
H          0.83081       -2.15434       -2.49914
H          2.13349       -1.82750       -1.37143
H         -0.34815       -3.57744       -0.94648
H          0.19845       -2.37866        1.16842
H          1.87070       -2.91259        1.06224
H          0.65560       -4.16532        2.70440
H         -0.63521       -4.56063        1.59299
H          2.25839       -5.56134        1.20532
H          1.05732       -6.34680        2.19786
H          0.29990       -5.99309       -1.89218
H          1.91980       -6.51552       -1.47558
H          1.79773       -4.25457       -2.32884
H          2.60668       -4.35893       -0.78456
H          0.09521       -8.15244       -0.76737
H          2.22813       -8.26273        1.43778
H          1.63887       -9.61035        0.46610
H          2.53333       -8.29955       -0.30364
H         -2.57296       -7.96473        0.25066
H         -3.46987       -8.79844        2.69748
H         -2.09503       -9.74831        6.04813

--Link1--
%chk=JID_10602.chk
%mem=8GB
%nprocshared=4
# B3LYP/6-311++G(d,p) empiricaldispersion=gd3bj scf=xqc pop=npa geom=check

CID_79089683_JID_10602_Energie_neutraal

0 1

--Link1--
%chk=JID_10602.chk
%mem=8GB
%nprocshared=4
# B3LYP/6-311++G(d,p) empiricaldispersion=gd3bj scf=xqc pop=npa geom=check

CID_79089683_JID_10602_Energie_kation

1 2

--Link1--
%chk=JID_10602.chk
%mem=8GB
%nprocshared=4
# B3LYP/6-311++G(d,p) empiricaldispersion=gd3bj scf=xqc pop=npa geom=check

CID_79089683_JID_10602_Energie_anion

-1 2
