%chk=JID_9241.chk
%mem=8GB
%nprocshared=4
# opt freq B3LYP/6-31G(d) empiricaldispersion=gd3bj scf=xqc

CID_61212357_JID_9241_neutraal

0 1
C         -2.38400        0.00700       -0.11600
N         -0.94778       -0.24706        0.01509
C         -0.52615       -1.29899       -0.91908
C          0.96659       -1.59449       -0.77380
C          1.80912       -0.33847       -0.97808
C          1.34432        0.78025       -0.04352
C         -0.18313        0.99242       -0.19926
N          2.02617        2.05491       -0.36451
S          3.57065        2.35564        0.21205
O          4.44828        1.26408       -0.12454
O          3.87312        3.70952       -0.20174
C          3.51735        2.46035        1.95571
C          3.65957        1.59968        3.03525
C          3.55823        2.43895        4.16855
N          3.34763        3.71634        3.84983
N          3.34844        3.70198        2.50784
C          3.89298        0.17913        3.05686
O          4.23909       -0.45449        4.04256
O          3.65699       -0.46087        1.89767
H         -2.65231        0.35970       -1.11841
H         -2.95586       -0.90356        0.09449
H         -2.70951        0.75748        0.61287
H         -1.07998       -2.22265       -0.71176
H         -0.74455       -1.01237       -1.95622
H          1.26294       -2.35787       -1.50214
H          1.16573       -2.00975        0.22251
H          1.73105       -0.01373       -2.02379
H          2.86145       -0.58425       -0.80764
H          1.52951        0.51305        1.00097
H         -0.39856        1.40881       -1.19363
H         -0.49878        1.74832        0.53197
H          1.96968        2.31933       -1.34918
H          3.62694        2.16015        5.21392
H          3.25372        4.58035        2.00361
H          3.90734       -1.38815        2.08787

--Link1--
%chk=JID_9241.chk
%mem=8GB
%nprocshared=4
# B3LYP/6-311++G(d,p) empiricaldispersion=gd3bj scf=xqc pop=npa geom=check

CID_61212357_JID_9241_Energie_neutraal

0 1

--Link1--
%chk=JID_9241.chk
%mem=8GB
%nprocshared=4
# B3LYP/6-311++G(d,p) empiricaldispersion=gd3bj scf=xqc pop=npa geom=check

CID_61212357_JID_9241_Energie_kation

1 2

--Link1--
%chk=JID_9241.chk
%mem=8GB
%nprocshared=4
# B3LYP/6-311++G(d,p) empiricaldispersion=gd3bj scf=xqc pop=npa geom=check

CID_61212357_JID_9241_Energie_anion

-1 2
