%chk=JID_8769.chk
%mem=8GB
%nprocshared=4
# opt freq B3LYP/6-31G(d) empiricaldispersion=gd3bj scf=xqc

CID_112349610_JID_8769_neutraal

0 1
C          1.08928       -0.01430       -0.04272
C          0.20135       -1.26006       -0.12371
C          0.02485       -1.92481        1.27323
C         -0.55096       -1.00794        2.36962
O         -1.70659       -0.29604        1.93766
S         -0.81921       -3.57590        1.15402
C         -2.56808       -3.12204        1.30078
N         -1.06464       -0.89309       -0.75404
C         -1.71412       -1.41626       -1.82716
O         -2.85533       -1.01860       -2.07291
C         -1.04456       -2.43994       -2.72056
C         -0.66236       -1.84253       -4.07448
C          0.56697       -0.92767       -4.04908
C          1.88830       -1.64405       -3.75811
C          2.27957       -2.69416       -4.79776
C          3.79047       -2.85965       -4.64238
C          4.28004       -1.63712       -3.86755
C          3.08602       -0.69590       -3.79021
H          0.60973        0.79298        0.52064
H          1.29646        0.37556       -1.04494
H          2.04830       -0.24624        0.43161
H          0.72778       -1.97180       -0.76216
H          1.03062       -2.20220        1.61563
H         -0.79881       -1.57607        3.27313
H          0.19866       -0.26187        2.65522
H         -2.04360        0.19659        2.70780
H         -2.78997       -2.76196        2.30814
H         -2.86576       -2.37812        0.56253
H         -3.17077       -4.01901        1.13089
H         -1.66283       -0.28416       -0.19855
H         -0.20309       -2.94034       -2.24393
H         -1.79089       -3.22888       -2.88284
H         -0.49719       -2.65788       -4.78813
H         -1.50870       -1.26358       -4.46566
H          0.63737       -0.43267       -5.02656
H          0.41500       -0.12710       -3.31612
H          1.85012       -2.11927       -2.77142
H          1.75417       -3.64269       -4.64862
H          2.05194       -2.34246       -5.81155
H          4.27387       -2.93234       -5.62239
H          4.02902       -3.77623       -4.09150
H          5.14321       -1.16414       -4.34570
H          4.58531       -1.93913       -2.85861
H          3.05680       -0.05551       -4.68026
H          3.13112       -0.04977       -2.90835

--Link1--
%chk=JID_8769.chk
%mem=8GB
%nprocshared=4
# B3LYP/6-311++G(d,p) empiricaldispersion=gd3bj scf=xqc pop=npa geom=check

CID_112349610_JID_8769_Energie_neutraal

0 1

--Link1--
%chk=JID_8769.chk
%mem=8GB
%nprocshared=4
# B3LYP/6-311++G(d,p) empiricaldispersion=gd3bj scf=xqc pop=npa geom=check

CID_112349610_JID_8769_Energie_kation

1 2

--Link1--
%chk=JID_8769.chk
%mem=8GB
%nprocshared=4
# B3LYP/6-311++G(d,p) empiricaldispersion=gd3bj scf=xqc pop=npa geom=check

CID_112349610_JID_8769_Energie_anion

-1 2
