%chk=JID_4366.chk
%mem=8GB
%nprocshared=4
# opt freq B3LYP/6-31G(d) empiricaldispersion=gd3bj scf=xqc

CID_79952274_JID_4366_neutraal

0 1
C          1.05732       -0.00955        0.08139
C          0.56252       -0.17862       -1.36704
C          1.02278        0.96831       -2.36357
C          2.58999        0.85917       -2.52079
C          3.14957       -0.49193       -2.98224
C          2.81012       -1.66198       -2.07772
S          1.02188       -1.87820       -1.91562
C          0.41912        0.77237       -3.79436
C         -1.06706        0.91420       -3.95616
O         -1.63693        1.81624       -4.55022
O         -1.77324       -0.10186       -3.43505
N          0.74306        2.33138       -1.77532
C          1.20713        3.48072       -2.56143
C         -0.63642        2.59195       -1.34957
H          0.68159       -0.81739        0.72075
H          0.69490        0.92346        0.52308
H          2.14750        0.00168        0.16373
H         -0.52954       -0.19934       -1.31812
H          3.07861        1.13146       -1.57602
H          2.94302        1.58724       -3.26129
H          4.24282       -0.40641       -3.03274
H          2.82896       -0.70437       -4.00904
H          3.26004       -1.53795       -1.08814
H          3.22518       -2.58329       -2.49953
H          0.87536        1.48885       -4.49056
H          0.67440       -0.20570       -4.21687
H         -2.70299        0.09729       -3.67193
H          0.71186        3.55056       -3.53493
H          1.00740        4.41592       -2.02356
H          2.28936        3.47203       -2.71181
H         -1.30902        2.79726       -2.18569
H         -1.06681        1.78586       -0.75193
H         -0.65686        3.47442       -0.69815

--Link1--
%chk=JID_4366.chk
%mem=8GB
%nprocshared=4
# B3LYP/6-311++G(d,p) empiricaldispersion=gd3bj scf=xqc pop=npa geom=check

CID_79952274_JID_4366_Energie_neutraal

0 1

--Link1--
%chk=JID_4366.chk
%mem=8GB
%nprocshared=4
# B3LYP/6-311++G(d,p) empiricaldispersion=gd3bj scf=xqc pop=npa geom=check

CID_79952274_JID_4366_Energie_kation

1 2

--Link1--
%chk=JID_4366.chk
%mem=8GB
%nprocshared=4
# B3LYP/6-311++G(d,p) empiricaldispersion=gd3bj scf=xqc pop=npa geom=check

CID_79952274_JID_4366_Energie_anion

-1 2
