%chk=JID_5310.chk
%mem=8GB
%nprocshared=4
# opt freq B3LYP/6-31G(d) empiricaldispersion=gd3bj scf=xqc

CID_130603405_JID_5310_neutraal

0 1
C          2.08500       -0.02000       -0.01300
N          0.66491       -0.23137       -0.14069
N         -0.16116        0.78501       -0.44526
C         -1.35230        0.18290       -0.37500
C         -1.19790       -1.17734       -0.03375
N          0.11845       -1.44007        0.09593
C         -2.26225       -2.16521        0.14668
O         -3.43809       -1.86602       -0.07563
C         -1.87926       -3.56849        0.61826
C         -2.75484       -4.61397       -0.09337
C         -2.44206       -6.02846        0.38438
C         -2.57543       -6.14565        1.89852
C         -1.71879       -5.10885        2.62059
C         -2.03062       -3.68019        2.14715
N         -1.15964       -2.73926        2.85592
H          2.40260        0.71073       -0.76094
H          2.28314        0.35201        0.99482
H          2.60471       -0.96697       -0.17880
H         -2.26084        0.73897       -0.56328
H         -0.83999       -3.77489        0.33132
H         -2.60354       -4.55072       -1.17791
H         -3.81805       -4.40543        0.08369
H         -1.42286       -6.29984        0.08328
H         -3.11919       -6.74009       -0.10128
H         -2.28175       -7.15210        2.21737
H         -3.62599       -6.01335        2.18499
H         -0.65869       -5.33873        2.44819
H         -1.88951       -5.19551        3.70088
H         -3.06410       -3.43632        2.42500
H         -1.14692       -2.94933        3.85346
H         -0.19633       -2.82990        2.52716

--Link1--
%chk=JID_5310.chk
%mem=8GB
%nprocshared=4
# B3LYP/6-311++G(d,p) empiricaldispersion=gd3bj scf=xqc pop=npa geom=check

CID_130603405_JID_5310_Energie_neutraal

0 1

--Link1--
%chk=JID_5310.chk
%mem=8GB
%nprocshared=4
# B3LYP/6-311++G(d,p) empiricaldispersion=gd3bj scf=xqc pop=npa geom=check

CID_130603405_JID_5310_Energie_kation

1 2

--Link1--
%chk=JID_5310.chk
%mem=8GB
%nprocshared=4
# B3LYP/6-311++G(d,p) empiricaldispersion=gd3bj scf=xqc pop=npa geom=check

CID_130603405_JID_5310_Energie_anion

-1 2
