%chk=JID_7505.chk
%mem=8GB
%nprocshared=4
# opt freq B3LYP/6-31G(d) empiricaldispersion=gd3bj scf=xqc

CID_146989048_JID_7505_neutraal

0 1
C          0.99070       -0.00871       -0.09919
N          0.10318        0.98313        0.45449
C         -0.02158        2.28262        0.13271
O         -0.48460        3.06246        0.96474
N          0.33484        2.75837       -1.07431
C          0.46098        2.08057       -2.35056
C         -0.87756        1.56476       -2.88107
C         -1.91416        2.65885       -3.17971
C         -1.47262        3.73894       -4.17554
N         -1.14587        3.15928       -5.47851
C         -0.64178        4.16508       -6.42505
C          0.84048        4.51997       -6.22189
N          1.68305        3.33706       -6.16704
C          3.02794        3.35195       -5.94039
O          3.66140        2.30502       -6.03112
N          3.54828        4.57727       -5.63594
C          4.83447        4.65801       -5.63956
H          0.53034       -0.45319       -0.98393
H          1.13712       -0.79178        0.64963
H          1.95561        0.44249       -0.34251
H         -0.20905        0.82231        1.40391
H          0.14701        3.75184       -1.12072
H          0.91135        2.79452       -3.04708
H          1.17228        1.25886       -2.26490
H         -0.69371        0.97488       -3.78638
H         -1.31887        0.87087       -2.15529
H         -2.82454        2.17508       -3.55713
H         -2.20002        3.14968       -2.24116
H         -2.29778        4.45151       -4.29388
H         -0.62479        4.29502       -3.76272
H         -0.43028        2.44445       -5.36019
H         -0.75124        3.73512       -7.42809
H         -1.25864        5.07103       -6.40953
H          1.19088        5.14451       -7.05114
H          0.98142        5.08701       -5.29510
H          1.35870        2.47055       -6.57317
H          5.51328        3.81705       -5.86849
H          5.31656        5.62161       -5.41015

--Link1--
%chk=JID_7505.chk
%mem=8GB
%nprocshared=4
# B3LYP/6-311++G(d,p) empiricaldispersion=gd3bj scf=xqc pop=npa geom=check

CID_146989048_JID_7505_Energie_neutraal

0 1

--Link1--
%chk=JID_7505.chk
%mem=8GB
%nprocshared=4
# B3LYP/6-311++G(d,p) empiricaldispersion=gd3bj scf=xqc pop=npa geom=check

CID_146989048_JID_7505_Energie_kation

1 2

--Link1--
%chk=JID_7505.chk
%mem=8GB
%nprocshared=4
# B3LYP/6-311++G(d,p) empiricaldispersion=gd3bj scf=xqc pop=npa geom=check

CID_146989048_JID_7505_Energie_anion

-1 2
