%chk=JID_2229.chk
%mem=8GB
%nprocshared=4
# opt freq B3LYP/6-31G(d) empiricaldispersion=gd3bj scf=xqc

CID_107142334_JID_2229_neutraal

0 1
C          0.33400        1.00600       -0.17300
C          0.99170       -0.40924       -0.15769
C         -0.38927       -0.88869       -0.69495
N         -0.99726        0.38027       -0.25552
C          2.19105       -0.55813       -1.07909
C          3.40203        0.22288       -0.65616
O          3.73860        0.49054        0.48669
O          4.18010        0.56827       -1.69904
N          1.15507       -0.82137        1.25591
C          1.51205       -2.22455        1.46858
C          3.01993       -2.49447        1.59569
O          3.65333       -1.53926        2.44211
H          0.57377        1.60802       -1.05882
H          0.48700        1.63672        0.70907
H         -0.82951       -1.77969       -0.23660
H         -0.42330       -1.02278       -1.78357
H         -1.64340        0.80841       -0.91411
H          2.47928       -1.60846       -1.18866
H          1.91313       -0.21048       -2.08316
H          4.94226        1.03907       -1.29975
H          1.74443       -0.21940        1.83257
H          1.05331       -2.50503        2.42458
H          1.07295       -2.88752        0.71516
H          3.17718       -3.48506        2.03449
H          3.52234       -2.48407        0.62497
H          3.76264       -0.72072        1.91401

--Link1--
%chk=JID_2229.chk
%mem=8GB
%nprocshared=4
# B3LYP/6-311++G(d,p) empiricaldispersion=gd3bj scf=xqc pop=npa geom=check

CID_107142334_JID_2229_Energie_neutraal

0 1

--Link1--
%chk=JID_2229.chk
%mem=8GB
%nprocshared=4
# B3LYP/6-311++G(d,p) empiricaldispersion=gd3bj scf=xqc pop=npa geom=check

CID_107142334_JID_2229_Energie_kation

1 2

--Link1--
%chk=JID_2229.chk
%mem=8GB
%nprocshared=4
# B3LYP/6-311++G(d,p) empiricaldispersion=gd3bj scf=xqc pop=npa geom=check

CID_107142334_JID_2229_Energie_anion

-1 2
