%chk=JID_4297.chk
%mem=8GB
%nprocshared=4
# opt freq B3LYP/6-31G(d) empiricaldispersion=gd3bj scf=xqc

CID_130011685_JID_4297_neutraal

0 1
C          1.00593       -0.08378       -0.05428
N          0.60969       -1.08417        0.92063
C          0.31855       -0.57771        2.25384
C          1.00789       -2.38142        0.69165
O          1.80889       -2.69991       -0.18572
N          0.48927       -3.36691        1.47405
C         -0.91290       -3.47200        1.86343
C         -1.67479       -4.50560        1.03976
C         -1.19706       -5.97651        1.17013
C         -2.43066       -6.78580        0.68239
C         -3.45145       -5.68219        0.33888
C         -3.15519       -4.65394        1.43382
C         -2.92465       -4.92041       -0.85417
C         -1.86026       -4.21563       -0.44009
H          0.28756        0.74091       -0.03889
H          1.03163       -0.51095       -1.06139
H          2.00358        0.28648        0.20074
H         -0.61519       -0.00976        2.21718
H          0.24098       -1.37010        3.00071
H          1.13322        0.08525        2.56302
H          0.93498       -4.24635        1.24478
H         -0.92137       -3.75394        2.92187
H         -1.40924       -2.50181        1.76513
H         -0.96738       -6.23543        2.21025
H         -0.31319       -6.19096        0.55908
H         -2.18632       -7.42079       -0.17595
H         -2.80194       -7.42475        1.49161
H         -4.49210       -5.99809        0.26199
H         -3.73310       -3.72637        1.32911
H         -3.29785       -5.04897        2.44661
H         -3.29917       -4.98791       -1.86444
H         -1.20919       -3.61096       -1.05555

--Link1--
%chk=JID_4297.chk
%mem=8GB
%nprocshared=4
# B3LYP/6-311++G(d,p) empiricaldispersion=gd3bj scf=xqc pop=npa geom=check

CID_130011685_JID_4297_Energie_neutraal

0 1

--Link1--
%chk=JID_4297.chk
%mem=8GB
%nprocshared=4
# B3LYP/6-311++G(d,p) empiricaldispersion=gd3bj scf=xqc pop=npa geom=check

CID_130011685_JID_4297_Energie_kation

1 2

--Link1--
%chk=JID_4297.chk
%mem=8GB
%nprocshared=4
# B3LYP/6-311++G(d,p) empiricaldispersion=gd3bj scf=xqc pop=npa geom=check

CID_130011685_JID_4297_Energie_anion

-1 2
