%chk=JID_8763.chk
%mem=8GB
%nprocshared=4
# opt freq B3LYP/6-31G(d) empiricaldispersion=gd3bj scf=xqc

CID_106423942_JID_8763_neutraal

0 1
C          2.62500       -0.32100        0.00300
C          1.17989        0.00337       -0.18664
C          0.21521       -0.87723       -0.65911
S         -1.33057       -0.13821       -0.76360
C         -0.75054        1.33729       -0.14155
C          0.60532        1.28260        0.10746
S         -1.94128        2.63464        0.07535
O         -1.36109        3.49849        1.08099
O         -2.24248        3.11735       -1.25282
N         -3.35597        1.99134        0.70320
C         -3.31850        1.46441        2.06930
C         -3.81330        2.48642        3.01572
C         -3.21978        3.49173        3.74112
C         -4.28658        4.08819        4.43330
N         -5.45239        3.49609        4.16411
O         -5.15193        2.48464        3.26637
C          0.37248       -2.31253       -1.06725
N          0.23163       -3.18587        0.09259
H          3.08267       -0.59816       -0.95205
H          3.17547        0.53596        0.40459
H          2.74277       -1.15451        0.70267
H          1.15602        2.13207        0.49646
H         -4.16989        2.56445        0.47996
H         -3.96504        0.58006        2.10434
H         -2.31625        1.12295        2.34692
H         -2.17347        3.75983        3.75399
H         -4.26981        4.92456        5.11793
H         -0.37179       -2.59037       -1.82195
H          1.35712       -2.46674       -1.52278
H          0.39983       -4.14793       -0.19395
H          0.95232       -2.95613        0.77356

--Link1--
%chk=JID_8763.chk
%mem=8GB
%nprocshared=4
# B3LYP/6-311++G(d,p) empiricaldispersion=gd3bj scf=xqc pop=npa geom=check

CID_106423942_JID_8763_Energie_neutraal

0 1

--Link1--
%chk=JID_8763.chk
%mem=8GB
%nprocshared=4
# B3LYP/6-311++G(d,p) empiricaldispersion=gd3bj scf=xqc pop=npa geom=check

CID_106423942_JID_8763_Energie_kation

1 2

--Link1--
%chk=JID_8763.chk
%mem=8GB
%nprocshared=4
# B3LYP/6-311++G(d,p) empiricaldispersion=gd3bj scf=xqc pop=npa geom=check

CID_106423942_JID_8763_Energie_anion

-1 2
