%chk=JID_4838.chk
%mem=8GB
%nprocshared=4
# opt freq B3LYP/6-31G(d) empiricaldispersion=gd3bj scf=xqc

CID_130924766_JID_4838_neutraal

0 1
C          2.49600       -0.00700       -0.12600
C          1.06058       -0.48987        0.04154
C          0.05629        0.66051       -0.09037
C         -1.35261        0.19134        0.26414
C         -1.77748       -1.03592       -0.53718
C         -0.73282       -2.15863       -0.50543
C          0.69585       -1.68510       -0.86731
C          0.77870       -1.42001       -2.36042
C          2.03155       -1.04801       -3.11020
C          1.44296       -2.42654       -3.32991
C          2.33103       -3.55845       -2.84781
N          1.51831       -4.70303       -2.46779
C          0.82622       -2.70856       -4.69063
O         -0.18871       -1.76648       -5.02096
H          2.62125        0.60065       -1.02655
H          2.77975        0.62710        0.72185
H          3.19877       -0.84561       -0.15630
H          0.99459       -0.85568        1.07746
H          0.33665        1.48293        0.57898
H          0.06829        1.06613       -1.10925
H         -2.06557        1.00703        0.09724
H         -1.39266       -0.04703        1.33439
H         -1.97579       -0.73818       -1.57304
H         -2.72797       -1.41386       -0.14241
H         -1.04945       -2.96328       -1.17966
H         -0.71563       -2.58461        0.50621
H          1.37871       -2.49892       -0.60406
H         -0.09402       -0.87209       -2.70222
H          1.93276       -0.31491       -3.90705
H          2.98327       -0.98054       -2.59985
H          3.01986       -3.84893       -3.64942
H          2.95320       -3.25473       -1.99801
H          2.13336       -5.44041       -2.12549
H          0.92918       -4.44541       -1.67817
H          1.59847       -2.65426       -5.46504
H          0.37995       -3.70749       -4.72991
H         -0.94164       -1.97836       -4.44448

--Link1--
%chk=JID_4838.chk
%mem=8GB
%nprocshared=4
# B3LYP/6-311++G(d,p) empiricaldispersion=gd3bj scf=xqc pop=npa geom=check

CID_130924766_JID_4838_Energie_neutraal

0 1

--Link1--
%chk=JID_4838.chk
%mem=8GB
%nprocshared=4
# B3LYP/6-311++G(d,p) empiricaldispersion=gd3bj scf=xqc pop=npa geom=check

CID_130924766_JID_4838_Energie_kation

1 2

--Link1--
%chk=JID_4838.chk
%mem=8GB
%nprocshared=4
# B3LYP/6-311++G(d,p) empiricaldispersion=gd3bj scf=xqc pop=npa geom=check

CID_130924766_JID_4838_Energie_anion

-1 2
