%chk=JID_10525.chk
%mem=8GB
%nprocshared=4
# opt freq B3LYP/6-31G(d) empiricaldispersion=gd3bj scf=xqc

CID_114727718_JID_10525_neutraal

0 1
C          1.01778        0.01571        0.09714
C          0.27633        0.75403        1.20360
C          0.87566        2.12533        1.53108
N          0.72245        3.05179        0.41140
C          1.37070        4.35824        0.66820
C          2.90640        4.30181        0.62957
C          3.65068        5.29526        1.26930
C          5.04079        5.23741        1.21686
C          5.65483        4.19950        0.52720
C          4.85085        3.25465       -0.08589
N          3.50154        3.27870       -0.04944
C          0.84325        5.36680       -0.31521
C          0.16927        6.56454       -0.16266
C         -0.07099        7.06936       -1.46763
C         -0.69114        8.21012       -2.00738
C         -0.73770        8.35465       -3.40205
C         -0.18207        7.38872       -4.24576
C          0.44085        6.24871       -3.72742
C          0.47230        6.13453       -2.33981
O          1.03027        5.10664       -1.64631
H          0.91983        0.52659       -0.86527
H          0.60729       -0.99236       -0.02058
H          2.08260       -0.07793        0.33299
H         -0.77981        0.85977        0.92734
H          0.30348        0.13882        2.11115
H          0.35068        2.52732        2.40577
H          1.92686        1.99430        1.81120
H          1.21567        2.68045       -0.40583
H          1.07102        4.69172        1.67164
H          3.15970        6.10684        1.79660
H          5.63988        6.00049        1.70555
H          6.73483        4.13041        0.46431
H          5.28323        2.42738       -0.64123
H         -0.11946        7.01499        0.77580
H         -1.12897        8.96491       -1.36167
H         -1.21658        9.23152       -3.83269
H         -0.23494        7.52261       -5.32409
H          0.87578        5.48776       -4.36341

--Link1--
%chk=JID_10525.chk
%mem=8GB
%nprocshared=4
# B3LYP/6-311++G(d,p) empiricaldispersion=gd3bj scf=xqc pop=npa geom=check

CID_114727718_JID_10525_Energie_neutraal

0 1

--Link1--
%chk=JID_10525.chk
%mem=8GB
%nprocshared=4
# B3LYP/6-311++G(d,p) empiricaldispersion=gd3bj scf=xqc pop=npa geom=check

CID_114727718_JID_10525_Energie_kation

1 2

--Link1--
%chk=JID_10525.chk
%mem=8GB
%nprocshared=4
# B3LYP/6-311++G(d,p) empiricaldispersion=gd3bj scf=xqc pop=npa geom=check

CID_114727718_JID_10525_Energie_anion

-1 2
