%chk=JID_5525.chk
%mem=8GB
%nprocshared=4
# opt freq B3LYP/6-31G(d) empiricaldispersion=gd3bj scf=xqc

CID_58870353_JID_5525_neutraal

0 1
C          0.19200       -1.26400        0.09800
C         -0.98891       -0.73791        0.91102
C         -0.59601        0.67615        1.18509
C          0.41827        1.07165        0.40466
C          0.87146       -0.03250       -0.50245
C          1.06948        2.41790        0.38597
C          0.77906        3.23170       -0.88098
C         -0.69846        3.57625       -1.11791
C         -1.36063        4.39656       -0.01439
C         -0.88074        5.82494        0.00275
O         -1.41541        6.73790       -0.61296
O          0.23862        5.95109        0.76162
C          0.78699        7.27972        0.89840
C          1.40981        7.79120       -0.40300
O          0.47073        8.52422       -1.18618
H         -0.12004       -1.97907       -0.66996
H          0.89379       -1.78656        0.76134
H         -1.92036       -0.76817        0.33626
H         -1.12052       -1.31159        1.83279
H         -1.10132        1.29922        1.91038
H          1.95933       -0.15041       -0.50112
H          0.53222        0.14859       -1.52772
H          0.77798        2.99183        1.27301
H          2.15440        2.27814        0.47269
H          1.36707        4.15630       -0.84535
H          1.14625        2.67969       -1.75578
H         -0.77153        4.12383       -2.06628
H         -1.26724        2.64912       -1.25556
H         -2.44340        4.42998       -0.18868
H         -1.23795        3.95342        0.97841
H          0.01504        7.95511        1.28421
H          1.57161        7.19166        1.65686
H          2.22741        8.48174       -0.17615
H          1.79863        6.97081       -1.01367
H         -0.36622        8.01092       -1.20459

--Link1--
%chk=JID_5525.chk
%mem=8GB
%nprocshared=4
# B3LYP/6-311++G(d,p) empiricaldispersion=gd3bj scf=xqc pop=npa geom=check

CID_58870353_JID_5525_Energie_neutraal

0 1

--Link1--
%chk=JID_5525.chk
%mem=8GB
%nprocshared=4
# B3LYP/6-311++G(d,p) empiricaldispersion=gd3bj scf=xqc pop=npa geom=check

CID_58870353_JID_5525_Energie_kation

1 2

--Link1--
%chk=JID_5525.chk
%mem=8GB
%nprocshared=4
# B3LYP/6-311++G(d,p) empiricaldispersion=gd3bj scf=xqc pop=npa geom=check

CID_58870353_JID_5525_Energie_anion

-1 2
