%chk=JID_4978.chk
%mem=8GB
%nprocshared=4
# opt freq B3LYP/6-31G(d) empiricaldispersion=gd3bj scf=xqc

CID_79741528_JID_4978_neutraal

0 1
C          0.90096       -0.00070        0.01378
C          0.26226       -1.34638        0.35747
C          0.60937       -1.71725        1.80455
C         -1.27452       -1.36217        0.17972
C         -1.83279       -1.07713       -1.23720
C         -1.12469       -1.89652       -2.31903
C         -3.36796       -1.35848       -1.31014
N         -4.11884       -0.44091       -0.43326
C         -5.57761       -0.51359       -0.55996
C         -6.23024       -1.81905       -0.11068
C         -7.55221       -1.87062       -0.87528
N         -7.61484       -0.67970       -1.73459
C         -6.21271       -0.27398       -1.93329
O         -1.64778        0.31168       -1.54165
H          0.42656        0.81704        0.56659
H          0.82780        0.21760       -1.05502
H          1.96744       -0.00159        0.26476
H          0.70670       -2.11502       -0.28569
H          0.20847       -0.98201        2.51071
H          0.19809       -2.69824        2.06511
H          1.69457       -1.76488        1.94492
H         -1.63783       -2.34818        0.49952
H         -1.69104       -0.62830        0.88238
H         -1.18543       -2.96981       -2.11230
H         -1.57161       -1.70991       -3.30259
H         -0.07180       -1.61424       -2.41782
H         -3.68301       -1.19561       -2.34590
H         -3.56245       -2.40422       -1.05036
H         -3.87309       -0.63839        0.53804
H         -5.96024        0.27604        0.10378
H         -6.38572       -1.82879        0.97356
H         -5.63242       -2.69865       -0.36949
H         -7.59419       -2.77225       -1.49671
H         -8.40975       -1.90060       -0.19534
H         -8.09152        0.06437       -1.22251
H         -6.14205        0.77299       -2.24440
H         -5.77746       -0.89749       -2.72043
H         -2.41652        0.76434       -1.13730

--Link1--
%chk=JID_4978.chk
%mem=8GB
%nprocshared=4
# B3LYP/6-311++G(d,p) empiricaldispersion=gd3bj scf=xqc pop=npa geom=check

CID_79741528_JID_4978_Energie_neutraal

0 1

--Link1--
%chk=JID_4978.chk
%mem=8GB
%nprocshared=4
# B3LYP/6-311++G(d,p) empiricaldispersion=gd3bj scf=xqc pop=npa geom=check

CID_79741528_JID_4978_Energie_kation

1 2

--Link1--
%chk=JID_4978.chk
%mem=8GB
%nprocshared=4
# B3LYP/6-311++G(d,p) empiricaldispersion=gd3bj scf=xqc pop=npa geom=check

CID_79741528_JID_4978_Energie_anion

-1 2
