%chk=JID_5994.chk
%mem=8GB
%nprocshared=4
# opt freq B3LYP/6-31G(d) empiricaldispersion=gd3bj scf=xqc

CID_65053564_JID_5994_neutraal

0 1
C          0.95804        0.08961        0.01449
C          0.39690       -1.31655       -0.26738
C          0.53348       -2.13821        1.02344
C         -1.10849       -1.21905       -0.66711
N         -1.36458       -0.55015       -1.94639
O          1.24533       -1.83643       -1.30631
C          0.90761       -3.08437       -1.88798
C          1.26779       -4.35036       -1.09378
O          0.38768       -5.17357       -0.82530
N          2.58796       -4.51726       -0.68688
C          2.94375       -5.71312        0.07197
C          3.90597       -5.38087        1.20956
C          5.12046       -4.60575        0.70495
C          4.68542       -3.36976       -0.07875
C          3.71596       -3.73776       -1.19830
H          0.37132        0.61728        0.77367
H          0.98294        0.70049       -0.89452
H          1.99591        0.02845        0.36384
H          0.06679       -1.62668        1.87253
H          0.04975       -3.11497        0.93237
H          1.58637       -2.32036        1.26503
H         -1.54528       -2.22208       -0.72681
H         -1.65895       -0.68927        0.12014
H         -2.36774       -0.42235       -2.06826
H         -0.94806        0.37875       -1.94595
H         -0.15199       -3.12846       -2.15580
H          1.44306       -3.15298       -2.84263
H          3.40562       -6.41960       -0.62808
H          2.05265       -6.19746        0.48413
H          4.23025       -6.30262        1.70484
H          3.38261       -4.77598        1.96082
H          5.74978       -4.30775        1.55079
H          5.72848       -5.25360        0.06187
H          4.19960       -2.66222        0.60468
H          5.56368       -2.86581       -0.49681
H          3.39618       -2.83205       -1.71342
H          4.22119       -4.36155       -1.94595

--Link1--
%chk=JID_5994.chk
%mem=8GB
%nprocshared=4
# B3LYP/6-311++G(d,p) empiricaldispersion=gd3bj scf=xqc pop=npa geom=check

CID_65053564_JID_5994_Energie_neutraal

0 1

--Link1--
%chk=JID_5994.chk
%mem=8GB
%nprocshared=4
# B3LYP/6-311++G(d,p) empiricaldispersion=gd3bj scf=xqc pop=npa geom=check

CID_65053564_JID_5994_Energie_kation

1 2

--Link1--
%chk=JID_5994.chk
%mem=8GB
%nprocshared=4
# B3LYP/6-311++G(d,p) empiricaldispersion=gd3bj scf=xqc pop=npa geom=check

CID_65053564_JID_5994_Energie_anion

-1 2
