%chk=JID_6721.chk
%mem=8GB
%nprocshared=4
# opt freq B3LYP/6-31G(d) empiricaldispersion=gd3bj scf=xqc

CID_115345398_JID_6721_neutraal

0 1
C          1.01732        0.08882        0.04255
N          0.73679       -1.34320        0.00646
C         -0.46493       -1.65482        0.77652
C          0.70500       -1.89238       -1.36210
C         -0.37110       -1.39716       -2.34382
C          0.06274       -0.25275       -3.18357
N          0.62654       -0.41696       -4.38804
O          0.78204        0.89161       -4.84767
C          0.32476        1.71194       -3.85571
N         -0.13004        1.05297       -2.81236
C          0.39715        3.19281       -4.08254
C          1.84682        3.72243       -4.12288
C          2.77450        3.23018       -5.24119
S          2.28584        3.80554       -6.90145
C          2.35678        2.22989       -7.79220
N         -0.42222        3.62899       -5.22255
H          1.24920        0.39868        1.06799
H          0.17113        0.69162       -0.29977
H          1.89749        0.33330       -0.56204
H         -1.35585       -1.14218        0.39883
H         -0.65982       -2.73278        0.77537
H         -0.33047       -1.36320        1.82438
H          1.70258       -1.77565       -1.80651
H          0.57716       -2.97874       -1.25772
H         -0.62764       -2.23118       -3.01134
H         -1.30273       -1.14319       -1.82824
H         -0.06785        3.64963       -3.19828
H          1.82265        4.82095       -4.13878
H          2.32625        3.45616       -3.17011
H          3.77702        3.63358       -5.05873
H          2.87563        2.14222       -5.21965
H          3.35767        1.79662       -7.72519
H          1.62120        1.53097       -7.38700
H          2.12123        2.40420       -8.84543
H         -0.42127        4.64850       -5.25688
H          0.04784        3.35141       -6.08824

--Link1--
%chk=JID_6721.chk
%mem=8GB
%nprocshared=4
# B3LYP/6-311++G(d,p) empiricaldispersion=gd3bj scf=xqc pop=npa geom=check

CID_115345398_JID_6721_Energie_neutraal

0 1

--Link1--
%chk=JID_6721.chk
%mem=8GB
%nprocshared=4
# B3LYP/6-311++G(d,p) empiricaldispersion=gd3bj scf=xqc pop=npa geom=check

CID_115345398_JID_6721_Energie_kation

1 2

--Link1--
%chk=JID_6721.chk
%mem=8GB
%nprocshared=4
# B3LYP/6-311++G(d,p) empiricaldispersion=gd3bj scf=xqc pop=npa geom=check

CID_115345398_JID_6721_Energie_anion

-1 2
