%chk=JID_5790.chk
%mem=8GB
%nprocshared=4
# opt freq B3LYP/6-31G(d) empiricaldispersion=gd3bj scf=xqc

CID_20160631_JID_5790_neutraal

0 1
C          0.97622        0.01681        0.09567
O          0.96500        0.25021        1.49618
C          1.77709        1.36596        1.85886
C          2.08173        1.28465        3.35268
C          2.69435       -0.05815        3.76157
O          4.11138       -0.04147        3.94031
C          4.88770        0.24208        2.79609
C          4.72490       -0.54163        1.48686
O          4.75126        0.04485        0.40133
C          4.57754       -2.02552        1.50294
C          4.24083       -2.66651        0.30050
C          4.07243       -4.05092        0.25745
C          4.24171       -4.80577        1.41532
C          4.58695       -4.17866        2.61225
C          4.76114       -2.79219        2.65784
H          0.64410        0.90813       -0.44536
H          0.28676       -0.80308       -0.12241
H          1.97667       -0.27377       -0.23616
H          2.70163        1.38070        1.27712
H          1.22619        2.28740        1.63926
H          2.71883        2.12254        3.65441
H          1.12509        1.38498        3.88113
H          2.29061       -0.31991        4.74664
H          2.41337       -0.88092        3.09809
H          4.76205        1.30519        2.55795
H          5.93915        0.13250        3.08774
H          4.10375       -2.08787       -0.61139
H          3.80778       -4.53665       -0.67846
H          4.10582       -5.88409        1.38489
H          4.71899       -4.77100        3.51467
H          5.03330       -2.33775        3.60622

--Link1--
%chk=JID_5790.chk
%mem=8GB
%nprocshared=4
# B3LYP/6-311++G(d,p) empiricaldispersion=gd3bj scf=xqc pop=npa geom=check

CID_20160631_JID_5790_Energie_neutraal

0 1

--Link1--
%chk=JID_5790.chk
%mem=8GB
%nprocshared=4
# B3LYP/6-311++G(d,p) empiricaldispersion=gd3bj scf=xqc pop=npa geom=check

CID_20160631_JID_5790_Energie_kation

1 2

--Link1--
%chk=JID_5790.chk
%mem=8GB
%nprocshared=4
# B3LYP/6-311++G(d,p) empiricaldispersion=gd3bj scf=xqc pop=npa geom=check

CID_20160631_JID_5790_Energie_anion

-1 2
