%chk=JID_2002.chk
%mem=8GB
%nprocshared=4
# opt freq B3LYP/6-31G(d) empiricaldispersion=gd3bj scf=xqc

CID_13148527_JID_2002_neutraal

0 1
C         -2.49800        0.71200        0.27900
C         -1.23513        1.45609       -0.15343
C          0.02199        0.70798        0.30878
C          1.28966        1.42007       -0.13818
C          2.55589        0.66016        0.16521
O          3.62945        1.24163        0.29027
O          2.49135       -0.68989        0.15955
C          1.26133       -1.41978        0.34387
C          0.04946       -0.71557       -0.23683
C         -1.24012       -1.43801        0.10999
O         -1.25279       -2.58640        0.54844
C         -2.52234       -0.71710       -0.24579
H         -3.38384        1.24984       -0.07684
H         -2.54893        0.69920        1.37502
H         -1.23186        1.56790       -1.24504
H         -1.24608        2.46641        0.27225
H          0.00967        0.67047        1.40800
H          1.35106        2.39191        0.36566
H          1.27347        1.60162       -1.21952
H          1.14974       -1.60662        1.41873
H          1.39529       -2.39632       -0.13487
H          0.13185       -0.69548       -1.33160
H         -3.37027       -1.25794        0.18719
H         -2.62876       -0.73168       -1.33584

--Link1--
%chk=JID_2002.chk
%mem=8GB
%nprocshared=4
# B3LYP/6-311++G(d,p) empiricaldispersion=gd3bj scf=xqc pop=npa geom=check

CID_13148527_JID_2002_Energie_neutraal

0 1

--Link1--
%chk=JID_2002.chk
%mem=8GB
%nprocshared=4
# B3LYP/6-311++G(d,p) empiricaldispersion=gd3bj scf=xqc pop=npa geom=check

CID_13148527_JID_2002_Energie_kation

1 2

--Link1--
%chk=JID_2002.chk
%mem=8GB
%nprocshared=4
# B3LYP/6-311++G(d,p) empiricaldispersion=gd3bj scf=xqc pop=npa geom=check

CID_13148527_JID_2002_Energie_anion

-1 2
