%chk=JID_5805.chk
%mem=8GB
%nprocshared=4
# opt freq B3LYP/6-31G(d) empiricaldispersion=gd3bj scf=xqc

CID_136997495_JID_5805_neutraal

0 1
C          1.01066       -0.07501        0.06527
C          0.93561        0.08496        1.57220
O          1.77913        1.12011        2.05460
C          3.16156        0.85807        2.28003
C          3.53953       -0.51750        2.88555
N          3.72905       -0.62855        4.16231
C          4.05537       -1.85382        4.67811
C          4.20077       -2.94127        3.90641
C          3.98634       -2.81781        2.46261
O          4.10469       -3.77368        1.70624
N          3.65623       -1.57373        2.02785
N          4.25079       -1.94677        6.03686
C          4.02594        1.25045        1.05188
C          3.64791        2.64079        0.52487
C          5.52338        1.22993        1.38350
H          0.89015        0.89111       -0.43466
H          0.22682       -0.75267       -0.28632
H          1.97150       -0.48666       -0.24924
H         -0.08711        0.38816        1.82331
H          1.10482       -0.86066        2.09412
H          3.42864        1.58036        3.06545
H          4.45218       -3.91901        4.29062
H          3.50852       -1.47890        1.03542
H          4.96728       -2.61342        6.30309
H          4.41968       -1.01725        6.41420
H          3.85720        0.54253        0.23451
H          3.77605        3.40519        1.29883
H          4.27655        2.91618       -0.32885
H          2.60803        2.67113        0.18575
H          5.86024        0.22847        1.66746
H          6.11648        1.53671        0.51510
H          5.75573        1.91311        2.20758

--Link1--
%chk=JID_5805.chk
%mem=8GB
%nprocshared=4
# B3LYP/6-311++G(d,p) empiricaldispersion=gd3bj scf=xqc pop=npa geom=check

CID_136997495_JID_5805_Energie_neutraal

0 1

--Link1--
%chk=JID_5805.chk
%mem=8GB
%nprocshared=4
# B3LYP/6-311++G(d,p) empiricaldispersion=gd3bj scf=xqc pop=npa geom=check

CID_136997495_JID_5805_Energie_kation

1 2

--Link1--
%chk=JID_5805.chk
%mem=8GB
%nprocshared=4
# B3LYP/6-311++G(d,p) empiricaldispersion=gd3bj scf=xqc pop=npa geom=check

CID_136997495_JID_5805_Energie_anion

-1 2
