%chk=JID_3514.chk
%mem=8GB
%nprocshared=4
# opt freq B3LYP/6-31G(d) empiricaldispersion=gd3bj scf=xqc

CID_87580650_JID_3514_neutraal

0 1
C          1.07467        0.05014       -0.04370
C          0.93700        1.53518       -0.32307
O          1.77353        2.02041       -1.35801
C          3.19685        2.08634       -1.20617
C          3.69619        2.78142        0.08663
C          3.69513        2.05016        1.44062
C          4.82704        1.05914        1.70547
C          6.20973        1.65167        1.76395
O          7.24124        1.05992        1.48794
O          6.25719        2.90663        2.24016
C          3.90165        0.78617       -1.66430
C          3.30313        0.25761       -2.97809
C          5.40527        0.99470       -1.87665
H          0.96459       -0.53104       -0.96387
H          0.30474       -0.27466        0.66305
H          2.04509       -0.20157        0.38669
H         -0.08979        1.70883       -0.66597
H          1.04310        2.14269        0.57875
H          3.45886        2.81509       -1.98810
H          4.70557        3.16978       -0.09499
H          3.06178        3.66909        0.22068
H          3.73294        2.82250        2.22100
H          2.75121        1.53348        1.61043
H          4.65351        0.58145        2.67744
H          4.82554        0.26476        0.95689
H          7.21447        3.11800        2.25557
H          3.76150        0.00292       -0.91639
H          3.39693        0.99757       -3.78060
H          3.81863       -0.65415       -3.29918
H          2.24352        0.00993       -2.87119
H          5.90423        1.34034       -0.97108
H          5.88647        0.05751       -2.17687
H          5.59407        1.73443       -2.66249

--Link1--
%chk=JID_3514.chk
%mem=8GB
%nprocshared=4
# B3LYP/6-311++G(d,p) empiricaldispersion=gd3bj scf=xqc pop=npa geom=check

CID_87580650_JID_3514_Energie_neutraal

0 1

--Link1--
%chk=JID_3514.chk
%mem=8GB
%nprocshared=4
# B3LYP/6-311++G(d,p) empiricaldispersion=gd3bj scf=xqc pop=npa geom=check

CID_87580650_JID_3514_Energie_kation

1 2

--Link1--
%chk=JID_3514.chk
%mem=8GB
%nprocshared=4
# B3LYP/6-311++G(d,p) empiricaldispersion=gd3bj scf=xqc pop=npa geom=check

CID_87580650_JID_3514_Energie_anion

-1 2
