%chk=JID_2256.chk
%mem=8GB
%nprocshared=4
# opt freq B3LYP/6-31G(d) empiricaldispersion=gd3bj scf=xqc

CID_145486874_JID_2256_neutraal

0 1
C          1.00474       -0.06455        0.07623
C          0.23364       -0.17715        1.37176
C          2.81846        0.70753       -3.27577
C          1.74380       -0.05476       -4.03594
C          1.94538       -1.54079       -3.93381
C          0.97843       -2.39788       -3.56662
C          1.11237       -3.84847       -3.45630
C          0.07304       -4.69853       -3.31234
C         -1.34028       -4.38525       -3.27275
C         -2.35076       -5.26595       -3.18502
C         -2.29632       -6.75867       -3.11528
C          2.51300       -4.41939       -3.48868
H          0.67696        0.81110       -0.49190
H          0.84913       -0.95388       -0.54153
H          2.07606        0.03385        0.27481
H          0.39017        0.71141        1.99061
H         -0.83794       -0.27514        1.17412
H          0.56098       -1.05376        1.93872
H          2.82986        0.43176       -2.21695
H          2.63800        1.78503       -3.34467
H          3.81266        0.50557       -3.68877
H          0.75860        0.23634       -3.65338
H          1.77900        0.23308       -5.09278
H          2.93482       -1.89958       -4.20428
H          0.00354       -1.97700       -3.33479
H          0.31024       -5.75722       -3.23214
H         -1.61991       -3.33631       -3.32690
H         -3.36106       -4.85717       -3.16932
H         -2.76255       -7.10094       -2.18612
H         -2.85745       -7.18480       -3.95318
H         -1.28431       -7.16613       -3.15248
H          2.97595       -4.25738       -4.46799
H          3.13834       -3.95626       -2.71722
H          2.52707       -5.49910       -3.30158

--Link1--
%chk=JID_2256.chk
%mem=8GB
%nprocshared=4
# B3LYP/6-311++G(d,p) empiricaldispersion=gd3bj scf=xqc pop=npa geom=check

CID_145486874_JID_2256_Energie_neutraal

0 1

--Link1--
%chk=JID_2256.chk
%mem=8GB
%nprocshared=4
# B3LYP/6-311++G(d,p) empiricaldispersion=gd3bj scf=xqc pop=npa geom=check

CID_145486874_JID_2256_Energie_kation

1 2

--Link1--
%chk=JID_2256.chk
%mem=8GB
%nprocshared=4
# B3LYP/6-311++G(d,p) empiricaldispersion=gd3bj scf=xqc pop=npa geom=check

CID_145486874_JID_2256_Energie_anion

-1 2
