%chk=JID_9300.chk
%mem=8GB
%nprocshared=4
# opt freq B3LYP/6-31G(d) empiricaldispersion=gd3bj scf=xqc

CID_146615818_JID_9300_neutraal

0 1
C          1.07629        0.05976        0.02468
C          0.55213       -1.39862        0.00625
C          1.16765       -2.08853        1.24440
C         -0.98109       -1.33667        0.14953
N          0.93368       -2.13324       -1.25457
C          1.32464       -1.33119       -2.41798
C          0.63051       -3.49399       -1.37031
O         -0.01389       -4.16529       -0.57302
C          1.13238       -4.24391       -2.52456
C          2.48298       -4.41733       -2.71601
N          2.98556       -5.13289       -3.73988
N          2.13137       -5.71590       -4.59314
C          0.79274       -5.62316       -4.42251
C          0.25764       -4.88560       -3.38054
C          2.70911       -6.46878       -5.73159
C          2.87920       -5.54009       -6.91500
C          3.98461       -4.57567       -6.62540
O          5.10703       -4.87751       -6.26464
O          3.60229       -3.29586       -6.75276
H          0.82659        0.55690        0.96984
H          0.63703        0.66603       -0.77451
H          2.16643        0.09273       -0.08186
H          0.98599       -1.50471        2.15446
H          0.75226       -3.08367        1.42492
H          2.25188       -2.20030        1.12798
H         -1.43693       -0.87468       -0.73352
H         -1.42876       -2.32796        0.26638
H         -1.27315       -0.74730        1.02627
H          2.26802       -0.82235       -2.20445
H          1.45615       -1.92680       -3.32243
H          0.53483       -0.60434       -2.62834
H          3.21610       -3.98504       -2.03915
H          0.16316       -6.14343       -5.13752
H         -0.81754       -4.81776       -3.23203
H          3.65266       -6.90165       -5.38211
H          2.02206       -7.28886       -5.96530
H          3.15090       -6.09856       -7.81646
H          1.95125       -4.99706       -7.12507
H          4.41766       -2.76087       -6.61562

--Link1--
%chk=JID_9300.chk
%mem=8GB
%nprocshared=4
# B3LYP/6-311++G(d,p) empiricaldispersion=gd3bj scf=xqc pop=npa geom=check

CID_146615818_JID_9300_Energie_neutraal

0 1

--Link1--
%chk=JID_9300.chk
%mem=8GB
%nprocshared=4
# B3LYP/6-311++G(d,p) empiricaldispersion=gd3bj scf=xqc pop=npa geom=check

CID_146615818_JID_9300_Energie_kation

1 2

--Link1--
%chk=JID_9300.chk
%mem=8GB
%nprocshared=4
# B3LYP/6-311++G(d,p) empiricaldispersion=gd3bj scf=xqc pop=npa geom=check

CID_146615818_JID_9300_Energie_anion

-1 2
