%chk=JID_3027.chk
%mem=8GB
%nprocshared=4
# opt freq B3LYP/6-31G(d) empiricaldispersion=gd3bj scf=xqc

CID_88827904_JID_3027_neutraal

0 1
C          0.92257        0.02496        0.05816
C          0.08758       -0.18491       -1.19842
C          0.87623       -0.86360       -2.32063
S          0.29854       -2.54666       -2.65323
C          1.31006       -3.01542       -4.06788
C          2.58953       -2.23709       -4.34411
C          3.33480       -2.81793       -5.53921
C          1.00396       -3.45274       -1.24138
C          0.33887       -4.83242       -1.08881
C          1.05927       -5.96780       -1.80672
C          2.53514       -6.01121       -1.43734
C          3.22452       -4.68612       -1.73106
C          2.52125       -3.50231       -1.06767
H          1.27273       -0.92140        0.47743
H          0.32812        0.53354        0.82388
H          1.79763        0.64753       -0.15540
H         -0.82675       -0.73267       -0.94376
H         -0.22992        0.80613       -1.54656
H          0.68792       -0.30243       -3.24290
H          1.95028       -0.83613       -2.12943
H          1.49612       -4.08930       -4.02777
H          0.65038       -2.87154       -4.93314
H          2.35941       -1.18944       -4.56649
H          3.26270       -2.24105       -3.48498
H          2.71412       -2.78970       -6.44054
H          4.24392       -2.24072       -5.73514
H          3.62600       -3.85672       -5.35373
H          0.61794       -2.87547       -0.39287
H          0.32281       -5.07981       -0.01808
H         -0.71120       -4.80766       -1.40482
H          0.94426       -5.86654       -2.89016
H          0.59064       -6.92116       -1.53535
H          3.03131       -6.81557       -1.99214
H          2.63947       -6.24915       -0.37155
H          3.28609       -4.54439       -2.81218
H          4.26069       -4.73236       -1.37479
H          3.00609       -2.56789       -1.35736
H          2.71491       -3.59475        0.01103

--Link1--
%chk=JID_3027.chk
%mem=8GB
%nprocshared=4
# B3LYP/6-311++G(d,p) empiricaldispersion=gd3bj scf=xqc pop=npa geom=check

CID_88827904_JID_3027_Energie_neutraal

0 1

--Link1--
%chk=JID_3027.chk
%mem=8GB
%nprocshared=4
# B3LYP/6-311++G(d,p) empiricaldispersion=gd3bj scf=xqc pop=npa geom=check

CID_88827904_JID_3027_Energie_kation

1 2

--Link1--
%chk=JID_3027.chk
%mem=8GB
%nprocshared=4
# B3LYP/6-311++G(d,p) empiricaldispersion=gd3bj scf=xqc pop=npa geom=check

CID_88827904_JID_3027_Energie_anion

-1 2
