%chk=JID_10967.chk
%mem=8GB
%nprocshared=4
# opt freq B3LYP/6-31G(d) empiricaldispersion=gd3bj scf=xqc

CID_8533674_JID_10967_neutraal

0 1
C          0.92578       -0.00451        0.06686
C          0.57739        1.46018       -0.18620
N          0.85213        1.89753       -1.56281
C          0.10176        3.12653       -1.91302
C          0.39816        4.37755       -1.10811
C         -0.26668        4.63007        0.10221
C         -0.00106        5.78848        0.83601
C          0.92598        6.71542        0.36564
C          1.58381        6.48668       -0.84004
C          1.31940        5.32773       -1.57281
C          2.29789        1.98875       -1.84487
C          2.60298        2.26459       -3.32130
O          3.01829        3.35998       -3.70950
N          2.42829        1.26626       -4.24372
C          1.21230        0.65773       -4.29937
O          0.27016        1.14120       -4.92185
N          1.13290       -0.60500       -3.78280
C          2.21061       -1.40224       -3.30031
C          2.25064       -2.87499       -3.60958
C          3.25715       -1.95260       -4.22936
H          0.43999       -0.65730       -0.66556
H          0.57671       -0.30223        1.06135
H          2.00425       -0.18205        0.03379
H         -0.49685        1.55431        0.01657
H          1.10303        2.08613        0.54483
H          0.22880        3.35158       -2.97957
H         -0.97277        2.91117       -1.82893
H         -1.00500        3.92639        0.47916
H         -0.52282        5.96985        1.77191
H          1.13019        7.61920        0.93322
H          2.30011        7.21203       -1.21744
H          1.83351        5.18073       -2.52002
H          2.77940        2.76642       -1.24021
H          2.80998        1.05328       -1.60049
H          2.55909        1.75458       -5.12145
H          0.21879       -1.02844       -3.89068
H          2.53315       -1.12211       -2.30229
H          2.58900       -3.54725       -2.82965
H          1.48848       -3.29429       -4.25606
H          3.16926       -1.74575       -5.28967
H          4.27869       -1.99652       -3.87012

--Link1--
%chk=JID_10967.chk
%mem=8GB
%nprocshared=4
# B3LYP/6-311++G(d,p) empiricaldispersion=gd3bj scf=xqc pop=npa geom=check

CID_8533674_JID_10967_Energie_neutraal

0 1

--Link1--
%chk=JID_10967.chk
%mem=8GB
%nprocshared=4
# B3LYP/6-311++G(d,p) empiricaldispersion=gd3bj scf=xqc pop=npa geom=check

CID_8533674_JID_10967_Energie_kation

1 2

--Link1--
%chk=JID_10967.chk
%mem=8GB
%nprocshared=4
# B3LYP/6-311++G(d,p) empiricaldispersion=gd3bj scf=xqc pop=npa geom=check

CID_8533674_JID_10967_Energie_anion

-1 2
