%chk=JID_8260.chk
%mem=8GB
%nprocshared=4
# opt freq B3LYP/6-31G(d) empiricaldispersion=gd3bj scf=xqc

CID_62990642_JID_8260_neutraal

0 1
C          1.06521       -0.03574       -0.06686
C          1.14120       -0.51317        1.37534
N          1.44091        0.57808        2.30146
C          0.30445        1.31160        2.86117
C         -0.23856        0.64334        4.11448
C          2.77738        0.90602        2.51693
O          3.69361        0.33960        1.91350
C          3.11172        2.02327        3.51707
N          3.02040        3.32850        2.84266
C          3.42746        4.43246        3.71046
C          4.91806        4.57787        3.84617
C          5.57244        4.26086        5.03143
N          6.90744        4.36729        5.21685
C          7.63802        4.81196        4.17539
C          7.08659        5.13980        2.94500
C          5.70711        5.02871        2.78445
O          8.98600        4.85239        4.40919
C          9.57112        6.09758        4.04683
H          0.28286        0.71974       -0.19156
H          0.83996       -0.87420       -0.73298
H          2.01232        0.41032       -0.38704
H          0.19628       -0.98190        1.67090
H          1.91907       -1.28074        1.45906
H          0.58863        2.33964        3.09529
H         -0.47967        1.37253        2.09803
H          0.53052        0.56799        4.88945
H         -1.07697        1.21947        4.51804
H         -0.59447       -0.36943        3.90039
H          2.44368        1.96822        4.38143
H          4.12798        1.83160        3.88084
H          3.61981        3.30105        2.01580
H          3.03827        5.36379        3.28028
H          2.94825        4.35011        4.69433
H          5.02814        3.89345        5.89751
H          7.70558        5.45616        2.11463
H          5.25509        5.28465        1.82939
H          9.77246        6.12939        2.97121
H          8.95080        6.94939        4.34859
H         10.53063        6.18092        4.56642

--Link1--
%chk=JID_8260.chk
%mem=8GB
%nprocshared=4
# B3LYP/6-311++G(d,p) empiricaldispersion=gd3bj scf=xqc pop=npa geom=check

CID_62990642_JID_8260_Energie_neutraal

0 1

--Link1--
%chk=JID_8260.chk
%mem=8GB
%nprocshared=4
# B3LYP/6-311++G(d,p) empiricaldispersion=gd3bj scf=xqc pop=npa geom=check

CID_62990642_JID_8260_Energie_kation

1 2

--Link1--
%chk=JID_8260.chk
%mem=8GB
%nprocshared=4
# B3LYP/6-311++G(d,p) empiricaldispersion=gd3bj scf=xqc pop=npa geom=check

CID_62990642_JID_8260_Energie_anion

-1 2
