%chk=JID_4449.chk
%mem=8GB
%nprocshared=4
# opt freq B3LYP/6-31G(d) empiricaldispersion=gd3bj scf=xqc

CID_137219244_JID_4449_neutraal

0 1
C          2.44200       -0.09800       -0.00700
C          0.95543        0.06618        0.09337
N          0.48735        1.28131        0.44749
C         -0.86258        1.45342        0.51885
C         -1.78971        0.44017        0.25408
C         -1.26653       -0.82144       -0.04717
C          0.11201       -1.01033       -0.14409
N         -3.19553        0.52798        0.30467
C         -4.05722        1.53865       -0.01010
O         -5.25129        1.38713        0.25945
C         -3.59311        2.76045       -0.75378
C         -1.27947        2.70360        1.19418
N         -0.89879        3.92588        0.95396
O         -0.04276        3.99308       -0.14889
H          2.71924       -0.42521       -1.01392
H          2.95330        0.84852        0.19620
H          2.79048       -0.83741        0.72072
H         -1.92334       -1.66531       -0.24599
H          0.51482       -1.98406       -0.40658
H         -3.70284       -0.32675        0.51040
H         -3.52032        3.60615       -0.06741
H         -2.64908        2.59753       -1.27593
H         -4.33864        3.00015       -1.51935
H         -2.01738        2.56994        2.00334
H          0.27866        4.91225       -0.11065

--Link1--
%chk=JID_4449.chk
%mem=8GB
%nprocshared=4
# B3LYP/6-311++G(d,p) empiricaldispersion=gd3bj scf=xqc pop=npa geom=check

CID_137219244_JID_4449_Energie_neutraal

0 1

--Link1--
%chk=JID_4449.chk
%mem=8GB
%nprocshared=4
# B3LYP/6-311++G(d,p) empiricaldispersion=gd3bj scf=xqc pop=npa geom=check

CID_137219244_JID_4449_Energie_kation

1 2

--Link1--
%chk=JID_4449.chk
%mem=8GB
%nprocshared=4
# B3LYP/6-311++G(d,p) empiricaldispersion=gd3bj scf=xqc pop=npa geom=check

CID_137219244_JID_4449_Energie_anion

-1 2
