%chk=JID_1762.chk
%mem=8GB
%nprocshared=4
# opt freq B3LYP/6-31G(d) empiricaldispersion=gd3bj scf=xqc

CID_144349779_JID_1762_neutraal

0 1
C          1.07265       -0.06224       -0.02912
C          0.97959        1.41134        0.19760
C          0.08610        1.98119        1.02173
C         -0.03715        3.41013        1.30386
C          0.15600        4.31539        0.32500
C         -0.59234        3.90960        2.56142
C         -0.30394        3.54201        3.81919
C          0.68935        2.59432        4.29639
C          1.91583        2.41987        3.79069
O          0.29356        1.94399        5.45198
O         -1.06840        4.08645        4.84448
H          0.32706       -0.61926        0.54700
H          2.06503       -0.42123        0.26030
H          0.92124       -0.28601       -1.08949
H          1.70186        2.02067       -0.33930
H         -0.60542        1.34715        1.57625
H         -0.00032        5.37741        0.49141
H          0.46898        4.03191       -0.67434
H         -1.37173        4.66283        2.44295
H          2.62759        1.72741        4.22337
H          2.25557        2.98150        2.92579
H          0.98620        1.29969        5.68005
H         -0.85733        3.54117        5.62905

--Link1--
%chk=JID_1762.chk
%mem=8GB
%nprocshared=4
# B3LYP/6-311++G(d,p) empiricaldispersion=gd3bj scf=xqc pop=npa geom=check

CID_144349779_JID_1762_Energie_neutraal

0 1

--Link1--
%chk=JID_1762.chk
%mem=8GB
%nprocshared=4
# B3LYP/6-311++G(d,p) empiricaldispersion=gd3bj scf=xqc pop=npa geom=check

CID_144349779_JID_1762_Energie_kation

1 2

--Link1--
%chk=JID_1762.chk
%mem=8GB
%nprocshared=4
# B3LYP/6-311++G(d,p) empiricaldispersion=gd3bj scf=xqc pop=npa geom=check

CID_144349779_JID_1762_Energie_anion

-1 2
