%chk=JID_6444.chk
%mem=8GB
%nprocshared=4
# opt freq B3LYP/6-31G(d) empiricaldispersion=gd3bj scf=xqc

CID_69920127_JID_6444_neutraal

0 1
C          1.04590       -0.08560       -0.02381
O          0.38104        1.13517        0.28282
C          0.81752        1.76682        1.41804
C         -0.11863        2.54727        2.10661
C          0.23142        3.27975        3.23903
C          1.53990        3.21407        3.71381
C          2.49868        2.43097        3.05136
C          2.13042        1.72006        1.89369
C          3.92259        2.38716        3.55654
C          4.72484        3.57364        3.10215
C          5.32172        4.44371        3.92764
O         -1.42780        2.66737        1.63103
C         -2.20577        1.54313        1.89179
O         -1.88302        0.55385        2.54204
C         -3.54119        1.70849        1.16827
N         -4.58133        0.85249        1.76475
H          0.44116       -0.61722       -0.76484
H          1.13778       -0.73075        0.85694
H          2.02506        0.10923       -0.47216
H         -0.50579        3.89254        3.74817
H          1.81580        3.78423        4.59847
H          2.89033        1.15118        1.36705
H          3.91048        2.31030        4.65135
H          4.41341        1.47287        3.20023
H          4.82002        3.71803        2.02769
H          5.88816        5.28224        3.53379
H          5.25827        4.34448        5.00678
H         -3.86956        2.74976        1.23414
H         -3.38984        1.43507        0.11950
H         -5.32422        0.69873        1.08623
H         -4.16810       -0.06292        1.96243

--Link1--
%chk=JID_6444.chk
%mem=8GB
%nprocshared=4
# B3LYP/6-311++G(d,p) empiricaldispersion=gd3bj scf=xqc pop=npa geom=check

CID_69920127_JID_6444_Energie_neutraal

0 1

--Link1--
%chk=JID_6444.chk
%mem=8GB
%nprocshared=4
# B3LYP/6-311++G(d,p) empiricaldispersion=gd3bj scf=xqc pop=npa geom=check

CID_69920127_JID_6444_Energie_kation

1 2

--Link1--
%chk=JID_6444.chk
%mem=8GB
%nprocshared=4
# B3LYP/6-311++G(d,p) empiricaldispersion=gd3bj scf=xqc pop=npa geom=check

CID_69920127_JID_6444_Energie_anion

-1 2
