%chk=JID_7921.chk
%mem=8GB
%nprocshared=4
# opt freq B3LYP/6-31G(d) empiricaldispersion=gd3bj scf=xqc

CID_96660304_JID_7921_neutraal

0 1
C          2.54700       -1.42300        0.05400
C          1.34665       -0.51121        0.07566
C          0.13848       -1.02571        0.55717
C         -1.02053       -0.24576        0.60957
C         -0.96455        1.11038        0.21751
C          0.25487        1.65288       -0.29685
C          1.40384        0.81808       -0.40500
C          2.71543        1.30568       -0.97523
C          0.30322        3.12413       -0.69901
C          0.53894        4.08072        0.48095
C          1.97897        4.16555        0.99532
N          2.85735        4.84776        0.04276
C          4.22578        4.99467        0.54604
C          5.31409        4.08358        0.05250
C          5.28288        5.51840       -0.38581
C         -2.23019        1.94085        0.26543
C         -2.28632       -0.88905        1.11359
H          2.75989       -1.74296       -0.97073
H          3.42424       -0.92041        0.47384
H          2.37945       -2.32097        0.65881
H          0.09821       -2.06137        0.89130
H          2.60788        2.14617       -1.66033
H          3.39155        1.58884       -0.16419
H          3.19577        0.52405       -1.57355
H          1.01843        3.30885       -1.50247
H         -0.65288        3.38274       -1.17210
H          0.21735        5.08604        0.17777
H         -0.10141        3.80164        1.32610
H          1.96388        4.73982        1.93011
H          2.36104        3.17009        1.24084
H          2.84536        4.36524       -0.85324
H          4.30205        5.34743        1.57371
H          6.07861        3.78417        0.76007
H          5.08110        3.33015       -0.68906
H          5.00714        5.73662       -1.41062
H          6.02507        6.19335        0.02449
H         -2.03651        2.97705        0.55047
H         -2.71745        1.92444       -0.71461
H         -2.93980        1.57270        1.01173
H         -2.55534       -0.47946        2.09226
H         -3.10669       -0.73036        0.40617
H         -2.17079       -1.97252        1.22717

--Link1--
%chk=JID_7921.chk
%mem=8GB
%nprocshared=4
# B3LYP/6-311++G(d,p) empiricaldispersion=gd3bj scf=xqc pop=npa geom=check

CID_96660304_JID_7921_Energie_neutraal

0 1

--Link1--
%chk=JID_7921.chk
%mem=8GB
%nprocshared=4
# B3LYP/6-311++G(d,p) empiricaldispersion=gd3bj scf=xqc pop=npa geom=check

CID_96660304_JID_7921_Energie_kation

1 2

--Link1--
%chk=JID_7921.chk
%mem=8GB
%nprocshared=4
# B3LYP/6-311++G(d,p) empiricaldispersion=gd3bj scf=xqc pop=npa geom=check

CID_96660304_JID_7921_Energie_anion

-1 2
