%chk=JID_5386.chk
%mem=8GB
%nprocshared=4
# opt freq B3LYP/6-31G(d) empiricaldispersion=gd3bj scf=xqc

CID_116504417_JID_5386_neutraal

0 1
C          0.99652        0.08613       -0.05069
C          1.33801        0.00899       -1.52945
C          2.05031       -1.28859       -1.93002
N          1.16156       -2.36114       -2.37564
C          0.50225       -2.22027       -3.59086
O         -0.26607       -3.03564       -4.08325
C          0.91521       -3.61489       -1.61561
C          2.03422       -4.08209       -0.66529
C          2.03479       -3.46149        0.73522
S          1.12964       -4.47916        1.94909
C          0.95996       -3.26064        3.29274
C         -0.29301       -2.42240        3.11519
C         -0.46411       -3.59260       -0.94747
O         -1.06352       -2.61624       -0.52443
O         -0.99698       -4.82623       -0.81618
H          0.25323       -0.66096        0.22509
H          0.57667        1.06950        0.18520
H          1.88748       -0.05330        0.56927
H          0.43043        0.16657       -2.12251
H          2.00964        0.84777       -1.75099
H          2.68116       -1.05373       -2.79797
H          2.73317       -1.62898       -1.15025
H          0.74109       -1.27202       -4.10134
H          0.84336       -4.38997       -2.39281
H          1.99158       -5.17651       -0.58222
H          3.00003       -3.87258       -1.14337
H          3.06779       -3.39344        1.09253
H          1.62005       -2.45554        0.72350
H          0.89774       -3.80891        4.23788
H          1.85096       -2.62646        3.33901
H         -0.27386       -1.85066        2.18386
H         -1.19433       -3.04490        3.12021
H         -0.38231       -1.70633        3.93886
H         -1.85332       -4.66847       -0.36771

--Link1--
%chk=JID_5386.chk
%mem=8GB
%nprocshared=4
# B3LYP/6-311++G(d,p) empiricaldispersion=gd3bj scf=xqc pop=npa geom=check

CID_116504417_JID_5386_Energie_neutraal

0 1

--Link1--
%chk=JID_5386.chk
%mem=8GB
%nprocshared=4
# B3LYP/6-311++G(d,p) empiricaldispersion=gd3bj scf=xqc pop=npa geom=check

CID_116504417_JID_5386_Energie_kation

1 2

--Link1--
%chk=JID_5386.chk
%mem=8GB
%nprocshared=4
# B3LYP/6-311++G(d,p) empiricaldispersion=gd3bj scf=xqc pop=npa geom=check

CID_116504417_JID_5386_Energie_anion

-1 2
