%chk=JID_7370.chk
%mem=8GB
%nprocshared=4
# opt freq B3LYP/6-31G(d) empiricaldispersion=gd3bj scf=xqc

CID_106834768_JID_7370_neutraal

0 1
C         -2.55400       -1.00400       -0.06600
C         -1.08026       -0.73819       -0.16865
C         -0.17151       -1.74237        0.20907
C          1.21622       -1.55412        0.12481
C          1.71206       -0.30651       -0.30041
C          0.80515        0.70090       -0.66626
C         -0.56871        0.48305       -0.60593
O         -1.35966        1.52954       -0.98378
C          3.18537       -0.01111       -0.38674
N          2.13564       -2.54516        0.52478
C          1.99940       -3.90160        0.74175
O          2.84334       -4.43250        1.46868
C          0.97593       -4.65708        0.03861
C          0.51633       -4.52481       -1.26039
C         -0.49238       -5.47918       -1.58260
C         -0.75301       -6.32629       -0.52960
S          0.22027       -5.97670        0.83198
H         -3.00698       -0.33841        0.67564
H         -3.03597       -0.85040       -1.03694
H         -2.76007       -2.03504        0.24051
H         -0.57775       -2.66488        0.61423
H          1.16514        1.67094       -1.00304
H         -2.29173        1.29061       -0.86532
H          3.37541        0.96263       -0.85090
H          3.62674        0.00616        0.61482
H          3.69170       -0.76494       -0.99841
H          3.04754       -2.22376        0.82305
H          0.88615       -3.77458       -1.94992
H         -0.99266       -5.54662       -2.54105
H         -1.45913       -7.14478       -0.49529

--Link1--
%chk=JID_7370.chk
%mem=8GB
%nprocshared=4
# B3LYP/6-311++G(d,p) empiricaldispersion=gd3bj scf=xqc pop=npa geom=check

CID_106834768_JID_7370_Energie_neutraal

0 1

--Link1--
%chk=JID_7370.chk
%mem=8GB
%nprocshared=4
# B3LYP/6-311++G(d,p) empiricaldispersion=gd3bj scf=xqc pop=npa geom=check

CID_106834768_JID_7370_Energie_kation

1 2

--Link1--
%chk=JID_7370.chk
%mem=8GB
%nprocshared=4
# B3LYP/6-311++G(d,p) empiricaldispersion=gd3bj scf=xqc pop=npa geom=check

CID_106834768_JID_7370_Energie_anion

-1 2
