%chk=JID_9494.chk
%mem=8GB
%nprocshared=4
# opt freq B3LYP/6-31G(d) empiricaldispersion=gd3bj scf=xqc

CID_102910383_JID_9494_neutraal

0 1
C          0.98440        0.08753       -0.04577
C          0.33931        0.61056       -1.31791
C          0.95015        0.00202       -2.52079
N          0.64779       -1.11606       -3.14036
C          1.54849       -1.12256       -4.17983
N          2.40377       -0.08862       -4.18531
O          1.99609        0.67074       -3.08735
C          1.61611       -2.21749       -5.17576
N          0.60157       -2.04846       -6.21008
C         -0.59166       -2.72874       -6.23959
C         -1.26145       -2.36342       -7.38352
C         -0.44985       -1.42958       -8.08181
C          0.71589       -1.24493       -7.33077
C          1.73608       -0.37092       -7.74297
C          1.56226        0.32539       -8.94351
C          0.40689        0.14919       -9.70474
C         -0.60718       -0.72324       -9.28997
C          0.25704        0.90153      -10.96692
O         -0.72751        0.78726      -11.68634
H          0.87151       -0.99894        0.03766
H          0.51914        0.54601        0.83253
H          2.05555        0.31584       -0.02185
H         -0.73294        0.38567       -1.30306
H          0.43757        1.70123       -1.35861
H          2.59276       -2.26575       -5.66945
H          1.44510       -3.18595       -4.69241
H         -0.87050       -3.40945       -5.44511
H         -2.23435       -2.72697       -7.68810
H          2.63353       -0.22184       -7.14945
H          2.34335        1.00863       -9.26874
H         -1.50509       -0.85247       -9.88889
H          1.08446        1.57946      -11.23559

--Link1--
%chk=JID_9494.chk
%mem=8GB
%nprocshared=4
# B3LYP/6-311++G(d,p) empiricaldispersion=gd3bj scf=xqc pop=npa geom=check

CID_102910383_JID_9494_Energie_neutraal

0 1

--Link1--
%chk=JID_9494.chk
%mem=8GB
%nprocshared=4
# B3LYP/6-311++G(d,p) empiricaldispersion=gd3bj scf=xqc pop=npa geom=check

CID_102910383_JID_9494_Energie_kation

1 2

--Link1--
%chk=JID_9494.chk
%mem=8GB
%nprocshared=4
# B3LYP/6-311++G(d,p) empiricaldispersion=gd3bj scf=xqc pop=npa geom=check

CID_102910383_JID_9494_Energie_anion

-1 2
