%chk=JID_7949.chk
%mem=8GB
%nprocshared=4
# opt freq B3LYP/6-31G(d) empiricaldispersion=gd3bj scf=xqc

CID_63306658_JID_7949_neutraal

0 1
C          1.00482       -0.00909        0.09947
C          0.49394       -1.42249       -0.12815
N          0.73790       -2.20776        1.07678
C          0.24811       -3.58331        0.97011
C          1.05646       -4.53195        0.06656
C          2.57776       -4.39421        0.12772
C          0.60454       -5.97183        0.29165
O         -0.03718       -6.56008       -0.58209
N          0.87032       -6.63219        1.44705
C          1.59501       -6.24361        2.64769
C          0.84100       -6.64768        3.89838
C          0.71913       -5.79919        5.00889
C         -0.01005       -6.26782        6.10901
C         -0.56618       -7.54119        6.08836
C         -0.37757       -8.31614        4.96125
N          0.31111       -7.90407        3.87680
C          1.30077       -4.41628        5.04768
H          0.49865        0.46531        0.94723
H          0.82026        0.60507       -0.78791
H          2.08274       -0.00119        0.29444
H         -0.57852       -1.38324       -0.34904
H          1.00687       -1.85396       -0.99411
H          1.73006       -2.19398        1.30568
H          0.19516       -3.97149        1.98973
H         -0.79929       -3.57854        0.63825
H          0.78062       -4.30150       -0.97306
H          2.95989       -4.30047        1.14631
H          3.06949       -5.25567       -0.33717
H          2.90148       -3.50033       -0.41699
H          0.47417       -7.56673        1.48664
H          2.55377       -6.77283        2.63083
H          1.80225       -5.17816        2.63739
H         -0.15049       -5.64200        6.98748
H         -1.13337       -7.91791        6.93180
H         -0.78926       -9.31908        4.89578
H          2.36498       -4.43759        4.79208
H          0.76873       -3.76062        4.35188
H          1.22035       -3.97503        6.04703

--Link1--
%chk=JID_7949.chk
%mem=8GB
%nprocshared=4
# B3LYP/6-311++G(d,p) empiricaldispersion=gd3bj scf=xqc pop=npa geom=check

CID_63306658_JID_7949_Energie_neutraal

0 1

--Link1--
%chk=JID_7949.chk
%mem=8GB
%nprocshared=4
# B3LYP/6-311++G(d,p) empiricaldispersion=gd3bj scf=xqc pop=npa geom=check

CID_63306658_JID_7949_Energie_kation

1 2

--Link1--
%chk=JID_7949.chk
%mem=8GB
%nprocshared=4
# B3LYP/6-311++G(d,p) empiricaldispersion=gd3bj scf=xqc pop=npa geom=check

CID_63306658_JID_7949_Energie_anion

-1 2
