%chk=JID_10201.chk
%mem=8GB
%nprocshared=4
# opt freq B3LYP/6-31G(d) empiricaldispersion=gd3bj scf=xqc

CID_10901732_JID_10201_neutraal

0 1
C          1.04992       -0.06484        0.05748
C         -0.21463        0.78412       -0.08353
C         -0.04928        1.76247       -1.24987
C         -1.48375       -0.06439       -0.29482
C         -1.82956       -0.96425        0.84800
C         -2.56878       -0.65670        1.92929
C         -2.76818       -1.84888        2.73982
C         -3.46870       -2.04280        3.91776
C         -3.48365       -3.32520        4.47403
C         -2.80683       -4.38689        3.84969
C         -2.10514       -4.18491        2.65884
C         -2.09629       -2.91064        2.11681
C         -1.43587       -2.42893        0.85629
O         -3.19172        0.53983        2.21910
C         -2.51125        1.28560        3.14284
O         -1.43923        1.01529        3.66646
O         -3.24595        2.40367        3.38395
C         -2.71815        3.29197        4.37071
C         -3.49064        3.09609        5.63884
C         -2.95352        2.69037        6.79679
H          1.16916       -0.74584       -0.79184
H          1.02696       -0.65907        0.97571
H          1.94098        0.57031        0.10892
H         -0.32967        1.37677        0.83307
H          0.07931        1.23128       -2.19913
H         -0.92607        2.41248       -1.34012
H          0.82525        2.40433       -1.09914
H         -2.33236        0.60990       -0.47313
H         -1.38978       -0.66286       -1.21012
H         -3.99104       -1.22548        4.40301
H         -4.02342       -3.50357        5.40103
H         -2.83069       -5.37637        4.30046
H         -1.58420       -5.00517        2.17647
H         -0.35211       -2.55795        0.91162
H         -1.84314       -2.94866       -0.01637
H         -1.63744        3.17945        4.51448
H         -2.88162        4.31316        4.00977
H         -4.55721        3.30326        5.59274
H         -3.56905        2.56529        7.68242
H         -1.89494        2.46267        6.88577

--Link1--
%chk=JID_10201.chk
%mem=8GB
%nprocshared=4
# B3LYP/6-311++G(d,p) empiricaldispersion=gd3bj scf=xqc pop=npa geom=check

CID_10901732_JID_10201_Energie_neutraal

0 1

--Link1--
%chk=JID_10201.chk
%mem=8GB
%nprocshared=4
# B3LYP/6-311++G(d,p) empiricaldispersion=gd3bj scf=xqc pop=npa geom=check

CID_10901732_JID_10201_Energie_kation

1 2

--Link1--
%chk=JID_10201.chk
%mem=8GB
%nprocshared=4
# B3LYP/6-311++G(d,p) empiricaldispersion=gd3bj scf=xqc pop=npa geom=check

CID_10901732_JID_10201_Energie_anion

-1 2
