%chk=JID_5538.chk
%mem=8GB
%nprocshared=4
# opt freq B3LYP/6-31G(d) empiricaldispersion=gd3bj scf=xqc

CID_114966684_JID_5538_neutraal

0 1
C          0.97345        0.09353        0.02341
C          1.43298       -0.52867        1.33173
C          1.60486        0.49022        2.45978
C          0.33574        1.24634        2.86735
C         -0.85160        0.37722        3.30262
C         -0.54722       -0.59514        4.44430
C         -0.12328        0.12473        5.71963
O         -0.76277        1.11195        6.09125
C          1.02683       -0.40975        6.44435
C          1.68573       -1.61765        6.31365
C          2.80734       -1.75531        7.19930
C          2.95447       -0.62736        7.98829
S          1.74912        0.54255        7.66941
C          3.97815       -0.33981        9.03731
C          3.68836       -2.96079        7.24663
H         -0.03660        0.50508        0.10762
H          0.95782       -0.66332       -0.76745
H          1.64949        0.89551       -0.28945
H          0.73272       -1.31686        1.62815
H          2.39837       -1.02079        1.16221
H          2.02168       -0.02271        3.33415
H          2.36078        1.22674        2.15883
H          0.59579        1.93324        3.68229
H          0.01107        1.88548        2.03749
H         -1.67228        1.04274        3.59856
H         -1.22123       -0.19401        2.44302
H         -1.44683       -1.17411        4.68449
H          0.20902       -1.30918        4.11225
H          1.39249       -2.39158        5.61462
H          3.53628       -0.43066       10.03497
H          4.81896       -1.03774        8.97579
H          4.38433        0.67132        8.92647
H          3.73222       -3.36498        8.26306
H          3.31669       -3.75079        6.58603
H          4.70328       -2.70258        6.92756

--Link1--
%chk=JID_5538.chk
%mem=8GB
%nprocshared=4
# B3LYP/6-311++G(d,p) empiricaldispersion=gd3bj scf=xqc pop=npa geom=check

CID_114966684_JID_5538_Energie_neutraal

0 1

--Link1--
%chk=JID_5538.chk
%mem=8GB
%nprocshared=4
# B3LYP/6-311++G(d,p) empiricaldispersion=gd3bj scf=xqc pop=npa geom=check

CID_114966684_JID_5538_Energie_kation

1 2

--Link1--
%chk=JID_5538.chk
%mem=8GB
%nprocshared=4
# B3LYP/6-311++G(d,p) empiricaldispersion=gd3bj scf=xqc pop=npa geom=check

CID_114966684_JID_5538_Energie_anion

-1 2
