%chk=JID_1285.chk
%mem=8GB
%nprocshared=4
# opt freq B3LYP/6-31G(d) empiricaldispersion=gd3bj scf=xqc

CID_114976896_JID_1285_neutraal

0 1
C          0.93973       -0.04995        0.06223
C          0.19841       -0.56096        1.28821
C          0.57988        0.19876        2.56263
C          0.17021        1.69280        2.58034
C         -1.35925        1.79798        2.73732
C          0.91400        2.48823        3.70708
C          2.45971        2.44099        3.56631
C          2.96639        3.03737        2.26323
C          3.40101        3.54895        1.14545
N          0.39923        3.87558        3.72733
C          0.73013        4.60626        4.94043
H          0.61208        0.95418       -0.22063
H          0.74636       -0.70828       -0.79111
H          2.02088       -0.02873        0.23202
H         -0.88082       -0.52754        1.11161
H          0.45559       -1.61784        1.43040
H          0.12824       -0.30859        3.42475
H          1.66025        0.08415        2.67896
H          0.42734        2.15158        1.61903
H         -1.68405        1.39629        3.70321
H         -1.70213        2.83523        2.66893
H         -1.88221        1.24864        1.94929
H          0.65216        2.01116        4.66159
H          2.92918        2.98924        4.39161
H          2.83787        1.41902        3.65974
H          3.75635        3.96477        0.23073
H          0.75206        4.38018        2.91281
H          1.80230        4.80285        5.02672
H          0.22066        5.57500        4.92578
H          0.38848        4.07294        5.83319

--Link1--
%chk=JID_1285.chk
%mem=8GB
%nprocshared=4
# B3LYP/6-311++G(d,p) empiricaldispersion=gd3bj scf=xqc pop=npa geom=check

CID_114976896_JID_1285_Energie_neutraal

0 1

--Link1--
%chk=JID_1285.chk
%mem=8GB
%nprocshared=4
# B3LYP/6-311++G(d,p) empiricaldispersion=gd3bj scf=xqc pop=npa geom=check

CID_114976896_JID_1285_Energie_kation

1 2

--Link1--
%chk=JID_1285.chk
%mem=8GB
%nprocshared=4
# B3LYP/6-311++G(d,p) empiricaldispersion=gd3bj scf=xqc pop=npa geom=check

CID_114976896_JID_1285_Energie_anion

-1 2
