%chk=JID_3127.chk
%mem=8GB
%nprocshared=4
# opt freq B3LYP/6-31G(d) empiricaldispersion=gd3bj scf=xqc

CID_89726792_JID_3127_neutraal

0 1
C          1.05808        0.07561       -0.03017
C          0.54335       -1.23375       -0.64709
C          1.25789       -2.44733       -0.03673
N          1.41976       -2.50693        1.30384
C          2.02043       -3.60765        1.79302
C          2.45685       -4.64715        1.00890
C          2.24544       -4.50004       -0.33980
N          1.65413       -3.42188       -0.88716
N         -0.95275       -1.28472       -0.66508
C         -1.42130       -2.41740       -1.47004
C         -1.57891       -1.27503        0.67243
C         -2.00536        0.03856        1.27332
C         -3.04199       -0.93373        0.80283
H          0.85373        0.14080        1.04380
H          0.59981        0.94301       -0.51814
H          2.14344        0.16045       -0.15939
H          0.86229       -1.18851       -1.69852
H          2.14161       -3.62806        2.87201
H          2.93387       -5.52277        1.42545
H          2.55207       -5.26777       -1.04408
H         -1.21571       -3.38257       -0.99431
H         -2.50318       -2.34983       -1.62904
H         -0.96391       -2.41002       -2.46561
H         -1.21938       -2.03575        1.36371
H         -1.87103        0.16941        2.34004
H         -1.86591        0.94263        0.69233
H         -3.59946       -0.68004       -0.09086
H         -3.61761       -1.46627        1.55032

--Link1--
%chk=JID_3127.chk
%mem=8GB
%nprocshared=4
# B3LYP/6-311++G(d,p) empiricaldispersion=gd3bj scf=xqc pop=npa geom=check

CID_89726792_JID_3127_Energie_neutraal

0 1

--Link1--
%chk=JID_3127.chk
%mem=8GB
%nprocshared=4
# B3LYP/6-311++G(d,p) empiricaldispersion=gd3bj scf=xqc pop=npa geom=check

CID_89726792_JID_3127_Energie_kation

1 2

--Link1--
%chk=JID_3127.chk
%mem=8GB
%nprocshared=4
# B3LYP/6-311++G(d,p) empiricaldispersion=gd3bj scf=xqc pop=npa geom=check

CID_89726792_JID_3127_Energie_anion

-1 2
