%chk=JID_5747.chk
%mem=8GB
%nprocshared=4
# opt freq B3LYP/6-31G(d) empiricaldispersion=gd3bj scf=xqc

CID_141910428_JID_5747_neutraal

0 1
C          0.94851        0.04354       -0.07385
C          0.10202        0.25154        1.17811
C          0.90833        0.75927        2.38608
C          1.56103        2.11885        2.07680
C          0.13835        0.80038        3.75488
C         -0.92187        1.91996        3.87150
C         -2.30476        1.55130        3.35959
C         -2.80573        0.28136        4.01901
C         -1.83657       -0.87791        3.82110
C         -0.40773       -0.56845        4.31205
C          0.60577       -1.76994        4.18726
C          1.88462       -1.45294        4.99318
C          0.02008       -3.15028        4.62177
C         -0.66516       -3.90832        3.48351
O          1.04764       -4.02265        5.10550
H          1.32266        0.99189       -0.47009
H          0.34530       -0.42428       -0.85890
H          1.80155       -0.61080        0.13151
H         -0.70506        0.94689        0.93242
H         -0.34961       -0.71409        1.41086
H          1.74993        0.06843        2.51834
H          0.83502        2.83908        1.68676
H          2.02804        2.54574        2.97068
H          2.35253        2.01041        1.32787
H          0.91090        1.10930        4.47555
H         -1.01997        2.17297        4.93687
H         -0.58995        2.84350        3.38860
H         -2.30038        1.43180        2.27322
H         -3.00089        2.37024        3.57626
H         -3.78610        0.01453        3.60777
H         -2.95115        0.45636        5.09234
H         -1.83760       -1.16498        2.76738
H         -2.24849       -1.72404        4.38105
H         -0.52446       -0.40445        5.39583
H          0.90811       -1.87082        3.13872
H          1.66884       -1.40727        6.06604
H          2.65681       -2.21202        4.83048
H          2.33775       -0.50294        4.70057
H         -0.67750       -3.01585        5.45487
H          0.03862       -4.09823        2.66490
H         -0.99986       -4.89111        3.83488
H         -1.53017       -3.38884        3.07225
H          1.65220       -4.20956        4.36676

--Link1--
%chk=JID_5747.chk
%mem=8GB
%nprocshared=4
# B3LYP/6-311++G(d,p) empiricaldispersion=gd3bj scf=xqc pop=npa geom=check

CID_141910428_JID_5747_Energie_neutraal

0 1

--Link1--
%chk=JID_5747.chk
%mem=8GB
%nprocshared=4
# B3LYP/6-311++G(d,p) empiricaldispersion=gd3bj scf=xqc pop=npa geom=check

CID_141910428_JID_5747_Energie_kation

1 2

--Link1--
%chk=JID_5747.chk
%mem=8GB
%nprocshared=4
# B3LYP/6-311++G(d,p) empiricaldispersion=gd3bj scf=xqc pop=npa geom=check

CID_141910428_JID_5747_Energie_anion

-1 2
