%chk=JID_7589.chk
%mem=8GB
%nprocshared=4
# opt freq B3LYP/6-31G(d) empiricaldispersion=gd3bj scf=xqc

CID_45118338_JID_7589_neutraal

0 1
C          1.01474        0.02949        0.09441
C          0.36997       -0.73093        1.23854
C          0.78726       -0.22374        2.61876
C          0.30737        1.18720        2.99154
N         -1.12099        1.45509        2.77286
C         -2.12916        0.84106        3.49042
N         -3.38854        1.07329        3.30852
C         -3.78690        2.02781        2.36430
C         -2.85595        2.75117        1.62863
C         -1.42988        2.45778        1.84825
O         -0.59520        3.11146        1.22619
C         -3.25583        3.73513        0.71240
C         -4.61188        3.99672        0.52316
C         -5.56310        3.27446        1.24229
C         -5.14861        2.29898        2.15369
O         -6.08790        1.59422        2.86162
C         -1.78968       -0.18554        4.54510
H          0.69004        1.07233        0.06968
H          0.74087       -0.42720       -0.86208
H          2.10619        0.01205        0.17614
H         -0.71997       -0.70721        1.13269
H          0.66644       -1.78400        1.15801
H          0.43685       -0.94478        3.36261
H          1.88223       -0.24336        2.69578
H          0.51987        1.36765        4.05180
H          0.92137        1.91146        2.44518
H         -2.51188        4.29788        0.15235
H         -4.92485        4.76240       -0.18269
H         -6.61696        3.48525        1.08688
H         -6.97425        1.88364        2.59758
H         -2.61243       -0.26367        5.26340
H         -1.66915       -1.16182        4.06756
H         -0.88816        0.07426        5.10100

--Link1--
%chk=JID_7589.chk
%mem=8GB
%nprocshared=4
# B3LYP/6-311++G(d,p) empiricaldispersion=gd3bj scf=xqc pop=npa geom=check

CID_45118338_JID_7589_Energie_neutraal

0 1

--Link1--
%chk=JID_7589.chk
%mem=8GB
%nprocshared=4
# B3LYP/6-311++G(d,p) empiricaldispersion=gd3bj scf=xqc pop=npa geom=check

CID_45118338_JID_7589_Energie_kation

1 2

--Link1--
%chk=JID_7589.chk
%mem=8GB
%nprocshared=4
# B3LYP/6-311++G(d,p) empiricaldispersion=gd3bj scf=xqc pop=npa geom=check

CID_45118338_JID_7589_Energie_anion

-1 2
