%chk=JID_7595.chk
%mem=8GB
%nprocshared=4
# opt freq B3LYP/6-31G(d) empiricaldispersion=gd3bj scf=xqc

CID_84146800_JID_7595_neutraal

0 1
C         -0.02900        0.88300        0.00000
C         -0.54631       -0.06254        1.03862
C          0.93562        0.05796        0.80609
N          1.67350       -1.01567        0.18841
C          2.89248       -1.45493        0.62163
O          3.74705       -1.77933       -0.20042
N          3.17229       -1.47064        1.94894
C          2.33991       -1.53128        3.08548
C          1.08787       -2.16252        3.14144
C          0.33791       -2.16291        4.31746
C          0.82530       -1.52572        5.45669
C          2.08198       -0.91365        5.42776
C          2.84696       -0.94454        4.25252
C          2.55424       -0.22299        6.65122
O          1.95812       -0.15934        7.70993
O          3.74430        0.37944        6.48158
O          0.53992       -2.86297        2.10434
H         -0.08609        1.94531        0.20983
H         -0.19712        0.63057       -1.04019
H         -0.94498        0.34968        1.95847
H         -1.05461       -0.95893        0.70237
H          1.51230        0.63005        1.53107
H          1.65355       -1.01800       -0.82820
H          4.17066       -1.44986        2.12151
H         -0.62794       -2.66162        4.34222
H          0.22498       -1.51438        6.36429
H          3.82157       -0.46214        4.23495
H          3.91704        0.80436        7.34844
H          1.00940       -2.60463        1.29281

--Link1--
%chk=JID_7595.chk
%mem=8GB
%nprocshared=4
# B3LYP/6-311++G(d,p) empiricaldispersion=gd3bj scf=xqc pop=npa geom=check

CID_84146800_JID_7595_Energie_neutraal

0 1

--Link1--
%chk=JID_7595.chk
%mem=8GB
%nprocshared=4
# B3LYP/6-311++G(d,p) empiricaldispersion=gd3bj scf=xqc pop=npa geom=check

CID_84146800_JID_7595_Energie_kation

1 2

--Link1--
%chk=JID_7595.chk
%mem=8GB
%nprocshared=4
# B3LYP/6-311++G(d,p) empiricaldispersion=gd3bj scf=xqc pop=npa geom=check

CID_84146800_JID_7595_Energie_anion

-1 2
