%chk=JID_8191.chk
%mem=8GB
%nprocshared=4
# opt freq B3LYP/6-31G(d) empiricaldispersion=gd3bj scf=xqc

CID_64043983_JID_8191_neutraal

0 1
C          0.92595        0.06717        0.00208
C          0.39819       -1.19969       -0.66639
C          1.34751       -2.39609       -0.48455
O          1.90288       -2.41359        0.83148
C          3.13455       -3.11657        0.88226
O         -0.97432       -1.48739       -0.36760
C         -1.37091       -1.50381        1.00170
C         -1.24057       -2.86492        1.63791
C         -1.81938       -3.97287        0.99195
C         -1.75938       -5.24499        1.56002
C         -1.12430       -5.42829        2.78488
C         -0.54987       -4.33926        3.44185
C         -0.60737       -3.05875        2.87882
C          0.00580       -1.97347        3.58903
C          0.54041       -1.04511        4.13259
C          1.21700        0.11235        4.74020
C          0.21408        1.15205        5.23401
O         -0.45844        0.70323        6.40798
H          1.07071       -0.04772        1.08003
H          0.22317        0.89507       -0.14042
H          1.89044        0.35571       -0.42899
H          0.37471       -1.00300       -1.74587
H          0.83078       -3.34396       -0.66752
H          2.16212       -2.29492       -1.21301
H          3.03551       -4.11588        0.44903
H          3.90524       -2.54931        0.35010
H          3.43666       -3.20866        1.92853
H         -0.89854       -0.70018        1.56757
H         -2.44070       -1.25744        1.01101
H         -2.31987       -3.83777        0.03442
H         -2.20947       -6.09006        1.04593
H         -1.07479       -6.41836        3.22960
H         -0.05294       -4.49422        4.39657
H          1.84293       -0.22903        5.57190
H          1.87215        0.57309        3.99209
H          0.73954        2.07554        5.49723
H         -0.53606        1.39410        4.47325
H         -0.91355       -0.12656        6.17742

--Link1--
%chk=JID_8191.chk
%mem=8GB
%nprocshared=4
# B3LYP/6-311++G(d,p) empiricaldispersion=gd3bj scf=xqc pop=npa geom=check

CID_64043983_JID_8191_Energie_neutraal

0 1

--Link1--
%chk=JID_8191.chk
%mem=8GB
%nprocshared=4
# B3LYP/6-311++G(d,p) empiricaldispersion=gd3bj scf=xqc pop=npa geom=check

CID_64043983_JID_8191_Energie_kation

1 2

--Link1--
%chk=JID_8191.chk
%mem=8GB
%nprocshared=4
# B3LYP/6-311++G(d,p) empiricaldispersion=gd3bj scf=xqc pop=npa geom=check

CID_64043983_JID_8191_Energie_anion

-1 2
