%chk=JID_8964.chk
%mem=8GB
%nprocshared=4
# opt freq B3LYP/6-31G(d) empiricaldispersion=gd3bj scf=xqc

CID_118047990_JID_8964_neutraal

0 1
C         -1.14000        1.21100        0.00700
C          0.24673        1.35740       -0.09846
C          1.10158        0.28646        0.16945
C          0.54064       -0.96264        0.44139
C         -0.84488       -1.11669        0.54968
C         -1.69872       -0.02788        0.34107
C         -3.19666       -0.19473        0.43508
C         -3.87426       -0.52013       -0.90722
N         -3.58594       -1.89166       -1.34006
C         -4.34696       -2.28371       -2.52670
C         -3.80256       -1.71084       -3.81268
C         -4.41499       -0.61260       -4.42768
C         -3.90736       -0.09445       -5.62376
C         -2.75605       -0.63049       -6.20418
C         -2.17876       -1.75976       -5.62108
C         -2.67854       -2.28142       -4.42391
N         -2.33119       -0.19241       -7.46501
N          2.47809        0.40777       -0.05932
H         -1.77929        2.06767       -0.19215
H          0.65353        2.32078       -0.39358
H          1.17877       -1.83196        0.57366
H         -1.25492       -2.09750        0.78170
H         -3.43824       -0.96429        1.18001
H         -3.62557        0.73571        0.82987
H         -4.95619       -0.40864       -0.76636
H         -3.55921        0.20370       -1.66757
H         -2.58891       -1.96741       -1.54649
H         -4.31662       -3.37806       -2.60300
H         -5.41029       -2.03826       -2.41077
H         -5.30127       -0.16115       -3.98850
H         -4.42253        0.73566       -6.09928
H         -1.32983       -2.24620       -6.09376
H         -2.19628       -3.15035       -3.98171
H         -1.35519       -0.39712       -7.65554
H         -2.56332        0.77696       -7.65626
H          3.03301       -0.27638        0.44488
H          2.82696        1.35245        0.06724

--Link1--
%chk=JID_8964.chk
%mem=8GB
%nprocshared=4
# B3LYP/6-311++G(d,p) empiricaldispersion=gd3bj scf=xqc pop=npa geom=check

CID_118047990_JID_8964_Energie_neutraal

0 1

--Link1--
%chk=JID_8964.chk
%mem=8GB
%nprocshared=4
# B3LYP/6-311++G(d,p) empiricaldispersion=gd3bj scf=xqc pop=npa geom=check

CID_118047990_JID_8964_Energie_kation

1 2

--Link1--
%chk=JID_8964.chk
%mem=8GB
%nprocshared=4
# B3LYP/6-311++G(d,p) empiricaldispersion=gd3bj scf=xqc pop=npa geom=check

CID_118047990_JID_8964_Energie_anion

-1 2
