%chk=JID_3981.chk
%mem=8GB
%nprocshared=4
# opt freq B3LYP/6-31G(d) empiricaldispersion=gd3bj scf=xqc

CID_134887207_JID_3981_neutraal

0 1
C          0.92264       -0.00301        0.06330
C         -0.17683       -1.04453        0.28392
C          0.35849       -2.35790        0.79589
C         -0.26513       -3.54803        0.74457
C         -1.63522       -3.81803        0.20038
O         -1.56871       -4.92479       -0.69487
C         -1.32869       -4.52306       -2.03715
O         -2.45332       -3.87915       -2.62761
C         -3.55328       -4.76698       -2.77404
O         -1.27053       -0.60233        1.09077
C         -0.95250        0.10623        2.28057
O         -0.26492       -0.67387        3.24891
C         -1.13464       -1.59469        3.89393
H          1.48978        0.19349        0.97973
H          0.49060        0.94809       -0.26545
H          1.63389       -0.34219       -0.69760
H         -0.60922       -1.23306       -0.70696
H          1.33629       -2.32106        1.27317
H          0.23899       -4.41217        1.17287
H         -2.27517       -4.12374        1.03520
H         -2.11061       -2.94959       -0.26573
H         -0.47189       -3.84217       -2.08727
H         -1.06705       -5.41254       -2.62134
H         -3.27879       -5.62507       -3.39521
H         -3.91195       -5.10643       -1.79770
H         -4.36500       -4.22664       -3.26886
H         -0.35419        0.99341        2.05277
H         -1.89067        0.48068        2.70726
H         -1.87830       -1.05810        4.49111
H         -1.63705       -2.24309        3.17065
H         -0.53725       -2.21819        4.56453

--Link1--
%chk=JID_3981.chk
%mem=8GB
%nprocshared=4
# B3LYP/6-311++G(d,p) empiricaldispersion=gd3bj scf=xqc pop=npa geom=check

CID_134887207_JID_3981_Energie_neutraal

0 1

--Link1--
%chk=JID_3981.chk
%mem=8GB
%nprocshared=4
# B3LYP/6-311++G(d,p) empiricaldispersion=gd3bj scf=xqc pop=npa geom=check

CID_134887207_JID_3981_Energie_kation

1 2

--Link1--
%chk=JID_3981.chk
%mem=8GB
%nprocshared=4
# B3LYP/6-311++G(d,p) empiricaldispersion=gd3bj scf=xqc pop=npa geom=check

CID_134887207_JID_3981_Energie_anion

-1 2
