%chk=JID_7944.chk
%mem=8GB
%nprocshared=4
# opt freq B3LYP/6-31G(d) empiricaldispersion=gd3bj scf=xqc

CID_80589005_JID_7944_neutraal

0 1
C          0.92604        0.05823        0.03375
S          0.57229        0.04305       -1.71373
O          1.01439       -1.21204       -2.27420
O         -0.77901        0.51302       -1.91651
N          1.56878        1.24605       -2.31135
C          3.03504        1.18827       -2.18394
C          3.69154       -0.04060       -2.82950
N          3.28388       -0.24680       -4.21312
C          3.77567        0.54556       -5.23300
O          2.96442        1.29870       -5.78337
C          5.31347        0.41506       -5.61876
C          6.24963        1.42802       -4.86321
C          7.29238        0.31593       -4.70822
C          6.19262       -0.72146       -4.96658
C          5.35149        0.47235       -7.21820
S          5.19406       -0.88474       -8.18208
N          5.54597        1.68749       -7.82267
H          0.25038       -0.65138        0.51650
H          0.74732        1.06237        0.42222
H          1.95951       -0.25201        0.19423
H          1.21141        1.64358       -3.18551
H          3.42812        2.09488       -2.66037
H          3.31220        1.24792       -1.12672
H          4.77193        0.09601       -2.76911
H          3.45051       -0.95378       -2.27965
H          2.27172       -0.31898       -4.27612
H          6.60275        2.29770       -5.42374
H          5.84673        1.79237       -3.91166
H          7.77301        0.25701       -3.72798
H          8.06751        0.33250       -5.48227
H          5.80263       -1.18636       -4.05841
H          6.51428       -1.54185       -5.61484
H          5.46694        2.56131       -7.31822
H          5.47560        1.73302       -8.83355

--Link1--
%chk=JID_7944.chk
%mem=8GB
%nprocshared=4
# B3LYP/6-311++G(d,p) empiricaldispersion=gd3bj scf=xqc pop=npa geom=check

CID_80589005_JID_7944_Energie_neutraal

0 1

--Link1--
%chk=JID_7944.chk
%mem=8GB
%nprocshared=4
# B3LYP/6-311++G(d,p) empiricaldispersion=gd3bj scf=xqc pop=npa geom=check

CID_80589005_JID_7944_Energie_kation

1 2

--Link1--
%chk=JID_7944.chk
%mem=8GB
%nprocshared=4
# B3LYP/6-311++G(d,p) empiricaldispersion=gd3bj scf=xqc pop=npa geom=check

CID_80589005_JID_7944_Energie_anion

-1 2
