%chk=JID_10820.chk
%mem=8GB
%nprocshared=4
# opt freq B3LYP/6-31G(d) empiricaldispersion=gd3bj scf=xqc

CID_136917670_JID_10820_neutraal

0 1
C          0.91921       -0.05736        0.01351
C          1.27044       -0.57165       -1.37232
O          1.55824       -1.97658       -1.35349
C          2.75672       -2.33872       -0.83653
O          3.60294       -1.54170       -0.43752
C          3.01285       -3.82056       -0.88656
C          2.00019       -4.72089       -0.83868
C          2.13366       -6.23405       -0.90686
C          2.46191       -6.85726        0.44423
O          0.83442       -6.73008       -1.30196
O          0.67035       -4.31964       -0.72166
C          4.37867       -4.26954       -0.92120
N          4.90106       -5.46075       -1.16948
C          6.26071       -5.33167       -1.01923
C          7.27720       -6.28741       -1.15464
C          8.60307       -5.89137       -0.93245
C          8.90855       -4.57262       -0.58489
C          7.90595       -3.60625       -0.44813
C          6.59629       -4.03157       -0.67462
N          5.39482       -3.37962       -0.62718
H          0.11226       -0.65386        0.45157
H          0.60026        0.98788       -0.03383
H          1.77136       -0.12475        0.69601
H          0.41105       -0.43521       -2.03737
H          2.10740       -0.01495       -1.80894
H          2.82957       -6.54958       -1.68842
H          1.68423       -6.62788        1.18219
H          2.49477       -7.94914        0.35933
H          3.42231       -6.51509        0.83913
H          0.96293       -7.67609       -1.49878
H          0.15226       -5.13422       -0.91991
H          7.03442       -7.30916       -1.42263
H          9.40297       -6.62137       -1.03116
H          9.94601       -4.29039       -0.41641
H          8.13981       -2.58228       -0.17757
H          5.25622       -2.40214       -0.39460

--Link1--
%chk=JID_10820.chk
%mem=8GB
%nprocshared=4
# B3LYP/6-311++G(d,p) empiricaldispersion=gd3bj scf=xqc pop=npa geom=check

CID_136917670_JID_10820_Energie_neutraal

0 1

--Link1--
%chk=JID_10820.chk
%mem=8GB
%nprocshared=4
# B3LYP/6-311++G(d,p) empiricaldispersion=gd3bj scf=xqc pop=npa geom=check

CID_136917670_JID_10820_Energie_kation

1 2

--Link1--
%chk=JID_10820.chk
%mem=8GB
%nprocshared=4
# B3LYP/6-311++G(d,p) empiricaldispersion=gd3bj scf=xqc pop=npa geom=check

CID_136917670_JID_10820_Energie_anion

-1 2
