%chk=JID_7562.chk
%mem=8GB
%nprocshared=4
# opt freq B3LYP/6-31G(d) empiricaldispersion=gd3bj scf=xqc

CID_143282563_JID_7562_neutraal

0 1
C          0.90857        0.04034       -0.00371
C          1.07461       -0.57342       -1.38230
O          1.48038       -1.94065       -1.22854
C          2.76677       -2.13558       -1.65193
C          3.14326       -2.08229       -2.99632
C          4.48607       -2.23080       -3.34520
C          5.45542       -2.48171       -2.36907
C          5.05879       -2.60163       -1.02758
C          3.71374       -2.42992       -0.67254
C          6.10751       -2.85518        0.01394
C          7.11246       -1.72484       -0.02925
N          7.86164       -1.45108       -1.05140
C          7.81076       -2.23248       -2.17429
N          6.77269       -2.70045       -2.79156
C          7.20811       -0.83621        1.18494
O          2.26322       -1.83526       -4.01735
C          1.29706       -2.88029       -4.13767
H          0.20205       -0.54262        0.59628
H          0.54454        1.06897       -0.07731
H          1.86091        0.04255        0.53653
H          0.11139       -0.57319       -1.90354
H          1.77416        0.03003       -1.97456
H          4.78252       -2.16792       -4.38852
H          3.39905       -2.49891        0.36536
H          6.61333       -3.80960       -0.17007
H          5.66582       -2.91212        1.01488
H          8.79413       -2.46032       -2.62101
H          6.24567       -0.34329        1.34738
H          7.45417       -1.44364        2.05999
H          7.98145       -0.07540        1.04881
H          1.72985       -3.87114       -3.95625
H          0.45050       -2.70378       -3.46819
H          0.91749       -2.86400       -5.16397

--Link1--
%chk=JID_7562.chk
%mem=8GB
%nprocshared=4
# B3LYP/6-311++G(d,p) empiricaldispersion=gd3bj scf=xqc pop=npa geom=check

CID_143282563_JID_7562_Energie_neutraal

0 1

--Link1--
%chk=JID_7562.chk
%mem=8GB
%nprocshared=4
# B3LYP/6-311++G(d,p) empiricaldispersion=gd3bj scf=xqc pop=npa geom=check

CID_143282563_JID_7562_Energie_kation

1 2

--Link1--
%chk=JID_7562.chk
%mem=8GB
%nprocshared=4
# B3LYP/6-311++G(d,p) empiricaldispersion=gd3bj scf=xqc pop=npa geom=check

CID_143282563_JID_7562_Energie_anion

-1 2
