%chk=JID_6004.chk
%mem=8GB
%nprocshared=4
# opt freq B3LYP/6-31G(d) empiricaldispersion=gd3bj scf=xqc

CID_79473112_JID_6004_neutraal

0 1
C          1.01191        0.05775        0.08077
N          0.54368        0.55876       -1.20291
C         -0.35900       -0.31008       -1.95687
C         -1.81234        0.08378       -1.89471
C         -2.35901        0.83035       -0.85521
N         -3.66592        1.17143       -0.76383
C         -4.47865        0.74055       -1.75003
C         -4.04539       -0.01880       -2.82198
C         -2.69551       -0.35307       -2.88974
C          1.05585        1.75624       -1.68776
O          1.86675        2.43690       -1.05262
C          0.59695        2.24226       -3.07365
O          1.06902        1.52629       -4.20236
C          2.49451        1.43289       -4.31057
C          3.20352        2.78813       -4.48404
N          3.85941        3.24040       -3.25740
H          1.66476       -0.80138       -0.10047
H          0.15442       -0.25824        0.68165
H          1.57116        0.81348        0.63802
H         -0.03066       -0.32785       -3.00016
H         -0.25654       -1.33437       -1.57755
H         -1.75016        1.19927       -0.03424
H         -5.52109        1.02905       -1.65118
H         -4.74226       -0.34432       -3.58612
H         -2.33682       -0.95258       -3.72359
H         -0.49664        2.22807       -3.10346
H          0.86344        3.30112       -3.17062
H          2.89770        0.85318       -3.47179
H          2.68151        0.83390       -5.20926
H          3.98743        2.68333       -5.24180
H          2.50214        3.55226       -4.83455
H          4.11420        4.22309       -3.34153
H          3.22879        3.17713       -2.45059

--Link1--
%chk=JID_6004.chk
%mem=8GB
%nprocshared=4
# B3LYP/6-311++G(d,p) empiricaldispersion=gd3bj scf=xqc pop=npa geom=check

CID_79473112_JID_6004_Energie_neutraal

0 1

--Link1--
%chk=JID_6004.chk
%mem=8GB
%nprocshared=4
# B3LYP/6-311++G(d,p) empiricaldispersion=gd3bj scf=xqc pop=npa geom=check

CID_79473112_JID_6004_Energie_kation

1 2

--Link1--
%chk=JID_6004.chk
%mem=8GB
%nprocshared=4
# B3LYP/6-311++G(d,p) empiricaldispersion=gd3bj scf=xqc pop=npa geom=check

CID_79473112_JID_6004_Energie_anion

-1 2
