%chk=JID_9841.chk
%mem=8GB
%nprocshared=4
# opt freq B3LYP/6-31G(d) empiricaldispersion=gd3bj scf=xqc

CID_113966623_JID_9841_neutraal

0 1
C          1.00470        0.08807        0.04713
C          0.60757        1.13629        1.07475
C          1.34771        0.99796        2.39022
C          1.18070        2.37634        2.98325
O          1.29945        3.27910        1.87815
C          0.82101        2.61234        0.70141
C          1.63220        2.84935       -0.58873
O          1.05021        2.99832       -1.66866
N          2.99176        2.79494       -0.62249
C          3.97545        2.84813        0.44726
C          4.92932        1.65179        0.44056
N          5.64942        1.49439       -0.80634
C          6.60217        2.33530       -1.30646
C          6.97590        1.79171       -2.52464
N          6.26932        0.61903       -2.73846
C          5.48744        0.47194       -1.69429
C          7.94597        2.33276       -3.46955
O          8.28742        1.83104       -4.53196
O          8.49224        3.51705       -3.09380
H          0.45715        0.23176       -0.88981
H          0.76903       -0.91511        0.41870
H          2.07624        0.11059       -0.17156
H         -0.46430        1.00221        1.27989
H          0.94471        0.21114        3.03414
H          2.40899        0.78894        2.21734
H          1.94055        2.60877        3.73407
H          0.18892        2.50641        3.43038
H         -0.16191        3.05956        0.49858
H          3.33688        2.96701       -1.56270
H          4.53402        3.77938        0.30007
H          3.50036        2.91395        1.42231
H          5.67952        1.75907        1.23221
H          4.37867        0.72310        0.62710
H          6.92663        3.23162       -0.79544
H          4.79220       -0.34410       -1.54121
H          9.08747        3.71127       -3.84666

--Link1--
%chk=JID_9841.chk
%mem=8GB
%nprocshared=4
# B3LYP/6-311++G(d,p) empiricaldispersion=gd3bj scf=xqc pop=npa geom=check

CID_113966623_JID_9841_Energie_neutraal

0 1

--Link1--
%chk=JID_9841.chk
%mem=8GB
%nprocshared=4
# B3LYP/6-311++G(d,p) empiricaldispersion=gd3bj scf=xqc pop=npa geom=check

CID_113966623_JID_9841_Energie_kation

1 2

--Link1--
%chk=JID_9841.chk
%mem=8GB
%nprocshared=4
# B3LYP/6-311++G(d,p) empiricaldispersion=gd3bj scf=xqc pop=npa geom=check

CID_113966623_JID_9841_Energie_anion

-1 2
