%chk=JID_9376.chk
%mem=8GB
%nprocshared=4
# opt freq B3LYP/6-31G(d) empiricaldispersion=gd3bj scf=xqc

CID_138969740_JID_9376_neutraal

0 1
C          0.98870       -0.09247        0.03636
O          0.08439       -0.90033        0.77852
C          0.45932       -2.20052        0.99700
C          1.73939       -2.72151        0.77065
C          1.94520       -4.08482        1.03610
C          0.93651       -4.92265        1.51320
C         -0.33779       -4.37511        1.75361
C         -0.55780       -3.01679        1.49525
C          1.49560       -6.22681        1.63767
C          2.82816       -6.15962        1.25174
N          3.07946       -4.85596        0.90223
C          3.64382       -7.28834        1.25924
C          3.04443       -8.48455        1.67318
C          3.85588       -9.75521        1.64455
C          3.21682      -10.90729        2.41646
C          1.73550      -11.01509        2.08127
C          1.00969       -9.74187        2.50507
C          1.68800       -8.47839        2.03266
N          0.90235       -7.37630        2.04095
H          0.49935        0.86743       -0.15502
H          1.22527       -0.54445       -0.93285
H          1.89807        0.10738        0.61226
H          2.55677       -2.11281        0.40539
H         -1.13891       -5.00503        2.12945
H         -1.54387       -2.59550        1.67689
H          3.97068       -4.51052        0.57787
H          4.68265       -7.24515        0.95136
H          4.85542       -9.56802        2.05499
H          3.98035      -10.05200        0.59535
H          3.33796      -10.74574        3.49514
H          3.73044      -11.84400        2.17275
H          1.61118      -11.17791        1.00318
H          1.29407      -11.87847        2.59129
H         -0.01823       -9.77036        2.12472
H          0.95188       -9.70161        3.59990

--Link1--
%chk=JID_9376.chk
%mem=8GB
%nprocshared=4
# B3LYP/6-311++G(d,p) empiricaldispersion=gd3bj scf=xqc pop=npa geom=check

CID_138969740_JID_9376_Energie_neutraal

0 1

--Link1--
%chk=JID_9376.chk
%mem=8GB
%nprocshared=4
# B3LYP/6-311++G(d,p) empiricaldispersion=gd3bj scf=xqc pop=npa geom=check

CID_138969740_JID_9376_Energie_kation

1 2

--Link1--
%chk=JID_9376.chk
%mem=8GB
%nprocshared=4
# B3LYP/6-311++G(d,p) empiricaldispersion=gd3bj scf=xqc pop=npa geom=check

CID_138969740_JID_9376_Energie_anion

-1 2
