%chk=JID_8120.chk
%mem=8GB
%nprocshared=4
# opt freq B3LYP/6-31G(d) empiricaldispersion=gd3bj scf=xqc

CID_115173335_JID_8120_neutraal

0 1
C          1.01709        0.02216        0.09600
N          0.41218       -0.69478        1.25187
C         -0.63065        0.05427        1.97299
C         -2.06067       -0.19291        1.45473
C         -2.74957       -1.34594        2.14851
C         -2.98555       -2.55212        1.47139
C         -3.50245       -3.62214        2.18633
C         -3.81746       -3.50376        3.54454
C         -4.36228       -4.78992        4.08250
C         -3.88697       -5.78107        3.01072
C         -3.81862       -4.99923        1.69029
C         -3.64503       -2.30787        4.21551
C         -3.10700       -1.22835        3.51214
C          0.85968       -1.98291        1.58256
O          1.66695       -2.57094        0.85194
C          0.37554       -2.71179        2.85467
C          0.88220       -1.95771        4.07331
N          1.30252       -1.33214        5.08426
H          0.21874        0.29913       -0.59780
H          1.74836       -0.59932       -0.42531
H          1.51490        0.92069        0.47138
H         -0.56103       -0.14733        3.04257
H         -0.39604        1.11919        1.85154
H         -2.66515        0.70412        1.64238
H         -2.06141       -0.34034        0.36828
H         -2.73391       -2.66503        0.42060
H         -5.45489       -4.74823        4.13069
H         -3.95115       -5.03958        5.06497
H         -2.87905       -6.13477        3.27103
H         -4.52965       -6.66420        2.94309
H         -3.04082       -5.39672        1.03248
H         -4.78558       -5.00260        1.17732
H         -3.90369       -2.21020        5.26540
H         -2.94512       -0.29040        4.04127
H         -0.70222       -2.80595        2.87388
H          0.79688       -3.72300        2.85951

--Link1--
%chk=JID_8120.chk
%mem=8GB
%nprocshared=4
# B3LYP/6-311++G(d,p) empiricaldispersion=gd3bj scf=xqc pop=npa geom=check

CID_115173335_JID_8120_Energie_neutraal

0 1

--Link1--
%chk=JID_8120.chk
%mem=8GB
%nprocshared=4
# B3LYP/6-311++G(d,p) empiricaldispersion=gd3bj scf=xqc pop=npa geom=check

CID_115173335_JID_8120_Energie_kation

1 2

--Link1--
%chk=JID_8120.chk
%mem=8GB
%nprocshared=4
# B3LYP/6-311++G(d,p) empiricaldispersion=gd3bj scf=xqc pop=npa geom=check

CID_115173335_JID_8120_Energie_anion

-1 2
