%chk=JID_8993.chk
%mem=8GB
%nprocshared=4
# opt freq B3LYP/6-31G(d) empiricaldispersion=gd3bj scf=xqc

CID_79959045_JID_8993_neutraal

0 1
C          0.92322       -0.04101        0.04922
C          0.29721       -1.12370       -0.81740
C          1.18278       -2.37718       -0.98298
C          0.44320       -3.47023       -1.77097
C          0.27856       -3.12466       -3.25039
C          1.61827       -2.78999       -3.93096
C          2.39875       -1.73026       -3.13083
C          2.53459       -2.10120       -1.65546
C          1.35447       -2.33484       -5.38335
N          2.58784       -2.23639       -6.15398
C          2.41205       -1.80353       -7.54661
C          1.81110       -0.39364       -7.75484
C          2.68121        0.84479       -7.40338
C          4.06276        0.78230       -8.08737
S          5.00010       -0.73547       -7.74376
C          3.75187       -1.94159       -8.29684
C          2.82940        1.04812       -5.88259
C          1.94556        2.09534       -7.94409
H          1.23660       -0.44311        1.01767
H          0.19693        0.75729        0.23369
H          1.79130        0.41204       -0.43802
H         -0.65114       -1.42337       -0.35373
H          0.04160       -0.68612       -1.78808
H          1.38327       -2.77088        0.02253
H          1.00441       -4.41016       -1.68832
H         -0.54127       -3.65807       -1.32629
H         -0.41737       -2.28407       -3.35801
H         -0.18812       -3.97589       -3.76156
H          2.21750       -3.71115       -3.95415
H          1.90673       -0.75444       -3.22070
H          3.40599       -1.61017       -3.54546
H          3.08314       -1.31504       -1.12630
H          3.15624       -3.00327       -1.57880
H          0.69101       -3.06032       -5.86922
H          0.82836       -1.37506       -5.35367
H          3.29220       -1.66630       -5.69269
H          1.72363       -2.51928       -8.01614
H          1.55689       -0.32748       -8.82368
H          0.84477       -0.31780       -7.24134
H          4.68121        1.63202       -7.77620
H          3.95434        0.85632       -9.17596
H          4.16470       -2.94757       -8.16007
H          3.59763       -1.80799       -9.37368
H          3.27569        2.02551       -5.66246
H          1.85474        1.01543       -5.38339
H          3.47478        0.30674       -5.40978
H          1.79833        2.03419       -9.02833
H          0.95907        2.20525       -7.47926
H          2.51428        3.01003       -7.74038

--Link1--
%chk=JID_8993.chk
%mem=8GB
%nprocshared=4
# B3LYP/6-311++G(d,p) empiricaldispersion=gd3bj scf=xqc pop=npa geom=check

CID_79959045_JID_8993_Energie_neutraal

0 1

--Link1--
%chk=JID_8993.chk
%mem=8GB
%nprocshared=4
# B3LYP/6-311++G(d,p) empiricaldispersion=gd3bj scf=xqc pop=npa geom=check

CID_79959045_JID_8993_Energie_kation

1 2

--Link1--
%chk=JID_8993.chk
%mem=8GB
%nprocshared=4
# B3LYP/6-311++G(d,p) empiricaldispersion=gd3bj scf=xqc pop=npa geom=check

CID_79959045_JID_8993_Energie_anion

-1 2
