%chk=JID_7175.chk
%mem=8GB
%nprocshared=4
# opt=(cartesian,calcfc,maxcycle=500) freq B3LYP/6-31G(d) empiricaldispersion=gd3bj scf=xqc

CID_150250096_JID_7175_neutraal

0 1
6	-4.998499	 -1.968168	 -0.228129
6	-3.590564	 -1.451686	 0.126217
6	-3.418943	 0.077490	 0.014282
6	-4.339782	 0.806795	 1.009877
6	-1.966016	 0.486748	 0.260349
7	-1.104295	 0.049750	 -0.825445
7	0.268950	 0.367037	 -0.754416
6	0.932616	 0.185246	 0.542646
6	2.448655	 -0.141308	 0.490716
6	3.201256	 0.792283	 -0.471932
7	2.919398	 0.139666	 1.849008
7	2.614769	 -1.589006	 0.184940
6	1.957267	 -2.093876	 -1.010956
6	4.012679	 -2.018864	 0.178966
7	0.448857	 1.656981	 -1.340751
7	0.412207	 2.638394	 -0.539072
7	0.505487	 3.603962	 0.067796
1	-5.754041	 -1.600859	 0.485362
1	-5.034712	 -3.068760	 -0.210006
1	-5.304242	 -1.641817	 -1.235599
1	-3.330413	 -1.776536	 1.140311
1	-2.885690	 -1.948377	 -0.558304
1	-3.674811	 0.381525	 -1.001613
1	-4.118515	 0.516761	 2.060303
1	-4.211605	 1.908162	 0.918597
1	-5.405499	 0.580173	 0.839878
1	-1.917418	 1.591335	 0.286461
1	-1.659260	 0.126937	 1.255232
1	-1.153689	 -0.977991	 -0.976940
1	0.821850	 1.058141	 1.201559
1	0.434446	 -0.647357	 1.034407
1	3.059431	 1.834387	 -0.177305
1	4.273891	 0.581884	 -0.439576
1	2.852401	 0.666584	 -1.499326
1	2.667353	 -0.641694	 2.452019
1	3.940120	 0.208052	 1.869691
1	2.316534	 -1.652957	 -1.948736
1	2.136360	 -3.178633	 -1.062962
1	0.887616	 -1.937939	 -0.955956
1	4.586556	 -1.701390	 -0.714345
1	4.539045	 -1.667458	 1.069577
1	4.044673	 -3.127626	 0.200649

--Link1--
%chk=JID_7175.chk
%mem=8GB
%nprocshared=4
# B3LYP/6-311++G(d,p) empiricaldispersion=gd3bj scf=xqc pop=npa geom=check

CID_150250096_JID_7175_Energie_neutraal

0 1

--Link1--
%chk=JID_7175.chk
%mem=8GB
%nprocshared=4
# B3LYP/6-311++G(d,p) empiricaldispersion=gd3bj scf=xqc pop=npa geom=check

CID_150250096_JID_7175_Energie_kation

1 2

--Link1--
%chk=JID_7175.chk
%mem=8GB
%nprocshared=4
# B3LYP/6-311++G(d,p) empiricaldispersion=gd3bj scf=xqc pop=npa geom=check

CID_150250096_JID_7175_Energie_anion

-1 2
