%chk=JID_5048.chk
%mem=8GB
%nprocshared=4
# opt freq B3LYP/6-31G(d) empiricaldispersion=gd3bj scf=xqc

CID_103715848_JID_5048_neutraal

0 1
C          1.01987        0.02445       -0.09491
C          0.29454       -0.52290       -1.30660
C          1.23180       -0.73506       -2.52562
C          1.70230       -2.19726       -2.50393
C          3.02986       -2.66582       -3.06089
C          2.81076       -2.65099       -1.57728
C          0.51319       -0.35529       -3.86739
C         -0.07178        1.08770       -3.94322
C          0.99491        2.18129       -4.01059
C          2.03907        1.87997       -5.07939
O          2.55100        0.55114       -4.94367
C          1.51170       -0.42687       -5.06549
C         -0.57928       -1.34243       -4.24483
N         -1.48558       -2.16134       -4.55795
O          2.38313        0.10282       -2.33254
H          1.82899       -0.63337        0.23241
H          0.31918        0.11320        0.74285
H          1.42541        1.02524       -0.27558
H         -0.21541       -1.45761       -1.04159
H         -0.51076        0.18129       -1.52151
H          0.86773       -2.88999       -2.59260
H          3.05830       -3.63097       -3.55580
H          3.73810       -1.95039       -3.46141
H          3.36154       -1.91460       -1.00248
H          2.68703       -3.59994       -1.06745
H         -0.67939        1.17331       -4.85723
H         -0.77303        1.30502       -3.13353
H          1.48064        2.27449       -3.03395
H          0.52562        3.14970       -4.21741
H          2.88014        2.57449       -4.98840
H          1.61964        2.00124       -6.08506
H          1.98677       -1.40971       -5.13799
H          1.00145       -0.27936       -6.02831
H          2.90453        0.11391       -3.15943

--Link1--
%chk=JID_5048.chk
%mem=8GB
%nprocshared=4
# B3LYP/6-311++G(d,p) empiricaldispersion=gd3bj scf=xqc pop=npa geom=check

CID_103715848_JID_5048_Energie_neutraal

0 1

--Link1--
%chk=JID_5048.chk
%mem=8GB
%nprocshared=4
# B3LYP/6-311++G(d,p) empiricaldispersion=gd3bj scf=xqc pop=npa geom=check

CID_103715848_JID_5048_Energie_kation

1 2

--Link1--
%chk=JID_5048.chk
%mem=8GB
%nprocshared=4
# B3LYP/6-311++G(d,p) empiricaldispersion=gd3bj scf=xqc pop=npa geom=check

CID_103715848_JID_5048_Energie_anion

-1 2
