%chk=JID_9263.chk
%mem=8GB
%nprocshared=4
# opt=(cartesian,calcfc) freq B3LYP/6-31G(d) empiricaldispersion=gd3bj scf=xqc

CID_61103132_JID_9263_neutraal

0 1
6	-0.332587	 1.063119	 2.245320
6	-1.248593	 0.295911	 1.326809
6	-1.610555	 0.739597	 0.041225
6	-2.534986	 0.005162	 -0.702804
6	-3.035654	 -1.196876	 -0.197141
6	-2.576701	 -1.579327	 1.075901
7	-1.739015	 -0.855581	 1.812732
7	-3.895677	 -2.009562	 -0.934272
6	-1.098957	 2.001164	 -0.593531
8	-1.857418	 2.858930	 -1.027098
7	0.267699	 2.145711	 -0.713638
6	1.282516	 1.181710	 -0.502202
6	1.138871	 -0.120712	 -0.901194
7	2.086433	 -1.061444	 -0.627097
6	3.310329	 -0.771182	 0.031680
8	4.118698	 -1.671079	 0.252611
6	3.467069	 0.624097	 0.391222
6	2.490934	 1.547609	 0.157176
6	1.854739	 -2.464313	 -0.966985
1	0.694372	 0.684092	 2.186373
1	-0.671842	 0.935132	 3.276548
1	-0.308827	 2.129439	 2.006397
1	-2.849708	 0.375303	 -1.674985
1	-2.923776	 -2.514964	 1.515862
1	-4.470144	 -1.519840	 -1.609357
1	-4.446915	 -2.653560	 -0.380461
1	0.530914	 3.029087	 -1.137093
1	0.255707	 -0.470246	 -1.418317
1	4.395515	 0.882603	 0.886868
1	2.618554	 2.578665	 0.480347
1	2.780779	 -2.888565	 -1.362648
1	1.577072	 -3.028308	 -0.065497
1	1.053427	 -2.531272	 -1.705079

--Link1--
%chk=JID_9263.chk
%mem=8GB
%nprocshared=4
# B3LYP/6-311++G(d,p) empiricaldispersion=gd3bj scf=xqc pop=npa geom=check

CID_61103132_JID_9263_Energie_neutraal

0 1

--Link1--
%chk=JID_9263.chk
%mem=8GB
%nprocshared=4
# B3LYP/6-311++G(d,p) empiricaldispersion=gd3bj scf=xqc pop=npa geom=check

CID_61103132_JID_9263_Energie_kation

1 2

--Link1--
%chk=JID_9263.chk
%mem=8GB
%nprocshared=4
# B3LYP/6-311++G(d,p) empiricaldispersion=gd3bj scf=xqc pop=npa geom=check

CID_61103132_JID_9263_Energie_anion

-1 2
