%chk=JID_9431.chk
%mem=8GB
%nprocshared=4
# opt freq B3LYP/6-31G(d) empiricaldispersion=gd3bj scf=xqc

CID_55074340_JID_9431_neutraal

0 1
C          0.91153       -0.02167        0.04127
C          0.48999        1.28403        0.68883
C          1.17909        2.52607        0.11335
N          0.66454        2.90065       -1.20396
C          0.21908        4.28494       -1.26701
C          1.40999        2.46804       -2.39347
C          2.90448        2.52595       -2.30878
C          3.74225        3.63635       -2.29104
O          5.05014        3.24737       -2.23300
C          5.07591        1.89229       -2.25702
C          6.22896        1.10979       -2.23387
C          6.04718       -0.27497       -2.29475
C          4.76882       -0.82840       -2.37951
C          3.62948       -0.01067       -2.39881
C          3.78588        1.38845       -2.32444
C          3.53573        5.11101       -2.32614
N          2.69571        5.49159       -3.46340
C          2.39294        6.92042       -3.48831
C          3.58044        7.79149       -3.87444
H          0.59167       -0.07634       -1.00176
H          0.45196       -0.86469        0.56777
H          1.99632       -0.15042        0.09116
H         -0.59961        1.39233        0.62297
H          0.72858        1.22587        1.75825
H          0.97811        3.33703        0.82753
H          2.26646        2.40367        0.14042
H          1.01607        4.99501       -1.04399
H         -0.20722        4.52888       -2.24636
H         -0.58472        4.45280       -0.54042
H          1.10924        1.43557       -2.60381
H          1.08120        3.01936       -3.28408
H          7.21236        1.55925       -2.17818
H          6.91630       -0.92908       -2.28172
H          4.65170       -1.90876       -2.43262
H          2.64351       -0.45904       -2.47018
H          3.09121        5.42849       -1.37797
H          4.51229        5.60360       -2.39978
H          3.17756        5.22235       -4.32112
H          1.59962        7.07616       -4.22832
H          1.98033        7.24528       -2.52601
H          4.00980        7.47495       -4.83071
H          3.26025        8.83329       -3.97961
H          4.36821        7.76380       -3.11563

--Link1--
%chk=JID_9431.chk
%mem=8GB
%nprocshared=4
# B3LYP/6-311++G(d,p) empiricaldispersion=gd3bj scf=xqc pop=npa geom=check

CID_55074340_JID_9431_Energie_neutraal

0 1

--Link1--
%chk=JID_9431.chk
%mem=8GB
%nprocshared=4
# B3LYP/6-311++G(d,p) empiricaldispersion=gd3bj scf=xqc pop=npa geom=check

CID_55074340_JID_9431_Energie_kation

1 2

--Link1--
%chk=JID_9431.chk
%mem=8GB
%nprocshared=4
# B3LYP/6-311++G(d,p) empiricaldispersion=gd3bj scf=xqc pop=npa geom=check

CID_55074340_JID_9431_Energie_anion

-1 2
