%chk=JID_5872.chk
%mem=8GB
%nprocshared=4
# opt freq B3LYP/6-31G(d) empiricaldispersion=gd3bj scf=xqc

CID_136444526_JID_5872_neutraal

0 1
C          1.05495       -0.05106        0.06613
C          0.36569        0.98795        0.93889
C          0.73643        2.43030        0.56673
C          0.39891        2.84981       -0.86113
N          0.22937        3.38783        1.55153
C         -1.01153        3.66603        1.78489
N         -2.09980        3.11220        1.15432
C         -3.38084        3.42074        1.46055
C         -3.74388        4.35429        2.39742
S         -5.43192        4.50265        2.54178
C         -5.70052        3.30701        1.34182
C         -4.51001        2.81276        0.84363
C         -7.09249        2.93138        0.96717
S         -2.60108        5.28361        3.32763
N         -1.19918        4.60451        2.77023
H          0.71574        0.01172       -0.97215
H          0.82634       -1.05814        0.42963
H          2.14187        0.07628        0.08533
H         -0.71351        0.82050        0.88177
H          0.64680        0.80736        1.98425
H          1.82987        2.49979        0.64558
H         -0.64051        2.64480       -1.12808
H          0.57558        3.92160       -1.00316
H          1.02867        2.31520       -1.58002
H         -1.90491        2.41951        0.45055
H         -4.46181        2.04993        0.07652
H         -7.63366        2.53428        1.83225
H         -7.63816        3.79797        0.57981
H         -7.09301        2.16038        0.18949
H         -0.31732        4.93900        3.14325

--Link1--
%chk=JID_5872.chk
%mem=8GB
%nprocshared=4
# B3LYP/6-311++G(d,p) empiricaldispersion=gd3bj scf=xqc pop=npa geom=check

CID_136444526_JID_5872_Energie_neutraal

0 1

--Link1--
%chk=JID_5872.chk
%mem=8GB
%nprocshared=4
# B3LYP/6-311++G(d,p) empiricaldispersion=gd3bj scf=xqc pop=npa geom=check

CID_136444526_JID_5872_Energie_kation

1 2

--Link1--
%chk=JID_5872.chk
%mem=8GB
%nprocshared=4
# B3LYP/6-311++G(d,p) empiricaldispersion=gd3bj scf=xqc pop=npa geom=check

CID_136444526_JID_5872_Energie_anion

-1 2
