%chk=JID_8882.chk
%mem=8GB
%nprocshared=4
# opt freq B3LYP/6-31G(d) empiricaldispersion=gd3bj scf=xqc

CID_54806331_JID_8882_neutraal

0 1
C          0.94469        0.07798       -0.02931
N          0.71604       -1.28027       -0.47598
C         -0.67421       -1.69723       -0.68504
C         -1.74511       -0.64435       -1.06978
N         -1.54140       -0.08925       -2.40320
C         -2.60104        0.80739       -2.87376
C         -2.90471        2.00926       -1.96054
C         -1.76195        3.02014       -1.90926
C         -1.39768        3.51248       -3.30653
C         -1.09749        2.35792       -4.25774
C         -2.22658        1.32396       -4.27744
C          1.69638       -1.80999       -1.42110
C          1.75252       -1.16210       -2.78557
C          2.59012       -0.06183       -3.02200
C          2.66505        0.51661       -4.29056
C          1.90207        0.00314       -5.33754
C          1.06327       -1.08628       -5.11608
C          0.99049       -1.66723       -3.84885
H          0.31589        0.31314        0.83641
H          0.75292        0.82220       -0.80672
H          1.98004        0.20495        0.30702
H         -0.73081       -2.53354       -1.39387
H         -1.00258       -2.12755        0.27068
H         -2.72299       -1.13998       -1.03233
H         -1.75596        0.14249       -0.30915
H         -0.61863        0.33928       -2.46551
H         -3.51726        0.21180       -2.97408
H         -3.80171        2.51603       -2.34195
H         -3.16268        1.68583       -0.94667
H         -0.88322        2.57127       -1.43309
H         -2.05679        3.87347       -1.28784
H         -0.52993        4.17918       -3.24837
H         -2.22795        4.10593       -3.70910
H         -0.15745        1.88261       -3.95942
H         -0.94227        2.74885       -5.26981
H         -1.94725        0.48859       -4.93167
H         -3.11453        1.78310       -4.73171
H          2.69498       -1.74362       -0.96711
H          1.54478       -2.89117       -1.54427
H          3.19692        0.34559       -2.21653
H          3.31927        1.36691       -4.46212
H          1.95706        0.45445       -6.32435
H          0.45909       -1.48343       -5.92755
H          0.32437       -2.51232       -3.69146

--Link1--
%chk=JID_8882.chk
%mem=8GB
%nprocshared=4
# B3LYP/6-311++G(d,p) empiricaldispersion=gd3bj scf=xqc pop=npa geom=check

CID_54806331_JID_8882_Energie_neutraal

0 1

--Link1--
%chk=JID_8882.chk
%mem=8GB
%nprocshared=4
# B3LYP/6-311++G(d,p) empiricaldispersion=gd3bj scf=xqc pop=npa geom=check

CID_54806331_JID_8882_Energie_kation

1 2

--Link1--
%chk=JID_8882.chk
%mem=8GB
%nprocshared=4
# B3LYP/6-311++G(d,p) empiricaldispersion=gd3bj scf=xqc pop=npa geom=check

CID_54806331_JID_8882_Energie_anion

-1 2
