%chk=JID_4687.chk
%mem=8GB
%nprocshared=4
# opt freq B3LYP/6-31G(d) empiricaldispersion=gd3bj scf=xqc

CID_79397398_JID_4687_neutraal

0 1
C          0.92894        0.01069       -0.06954
C          0.59799       -0.64071        1.28263
C          1.52997       -0.03958        2.33896
C         -0.92031       -0.51698        1.63739
C         -1.79231       -1.09041        0.50364
C         -1.33239       -1.23069        2.95382
N         -1.04914       -0.43490        4.14931
C         -1.69515       -0.94486        5.37668
C         -1.10639       -2.30583        5.78097
C         -1.51470        0.09369        6.51281
C         -2.04419        1.48565        6.15593
C         -2.18899       -0.36493        7.78541
O         -1.63026       -0.57869        8.85002
O         -3.51914       -0.53406        7.67290
H          0.59967        1.05481       -0.09611
H          0.45723       -0.52355       -0.89951
H          2.00727       -0.00864       -0.26308
H          0.84710       -1.70679        1.19591
H          1.19901        0.95888        2.64297
H          1.59174       -0.68283        3.22056
H          2.55462        0.05006        1.96086
H         -1.17461        0.54851        1.72525
H         -1.52671       -2.13107        0.28926
H         -2.85486       -1.05946        0.76917
H         -1.69008       -0.50872       -0.41713
H         -2.41189       -1.42337        2.92666
H         -0.83035       -2.20340        3.00389
H         -0.04703       -0.36365        4.30267
H         -2.76906       -1.07143        5.18779
H         -0.02578       -2.23884        5.94864
H         -1.56639       -2.68271        6.70010
H         -1.28515       -3.06608        5.01403
H         -0.44468        0.19150        6.74345
H         -3.08774        1.44392        5.82514
H         -2.00032        2.15288        7.02424
H         -1.45227        1.94489        5.35784
H         -3.80199       -0.80784        8.57086

--Link1--
%chk=JID_4687.chk
%mem=8GB
%nprocshared=4
# B3LYP/6-311++G(d,p) empiricaldispersion=gd3bj scf=xqc pop=npa geom=check

CID_79397398_JID_4687_Energie_neutraal

0 1

--Link1--
%chk=JID_4687.chk
%mem=8GB
%nprocshared=4
# B3LYP/6-311++G(d,p) empiricaldispersion=gd3bj scf=xqc pop=npa geom=check

CID_79397398_JID_4687_Energie_kation

1 2

--Link1--
%chk=JID_4687.chk
%mem=8GB
%nprocshared=4
# B3LYP/6-311++G(d,p) empiricaldispersion=gd3bj scf=xqc pop=npa geom=check

CID_79397398_JID_4687_Energie_anion

-1 2
