%chk=JID_2820.chk
%mem=8GB
%nprocshared=4
# opt freq B3LYP/6-31G(d) empiricaldispersion=gd3bj scf=xqc

CID_17826883_JID_2820_neutraal

0 1
C          0.91009       -0.03851       -0.02079
C          0.36600       -0.43501       -1.39142
C          0.86275       -1.82258       -1.83635
C          0.61054       -2.99646       -0.87465
C         -0.86264       -3.35711       -0.59448
C         -1.69573       -3.68173       -1.84546
N         -1.12229       -4.73021       -2.69395
C         -1.02652       -4.48389        0.40874
O         -2.08561       -4.84651        0.90156
O          0.11553       -5.09243        0.77891
O         -1.06315       -0.44196       -1.41229
C         -1.64921        0.85023       -1.33041
H          0.42116       -0.60140        0.78100
H          0.71894        1.02049        0.18097
H          1.99163       -0.19541        0.03794
H          0.72095        0.28706       -2.13818
H          0.42120       -2.06019       -2.81130
H          1.94678       -1.75884       -1.99814
H          1.12742       -3.87493       -1.28350
H          1.11616       -2.78906        0.07708
H         -1.31971       -2.49610       -0.09111
H         -2.70208       -4.00091       -1.54956
H         -1.82784       -2.78118       -2.45418
H         -1.76029       -4.91265       -3.46875
H         -0.25913       -4.39420       -3.11919
H         -0.19062       -5.79902        1.38433
H         -2.72652        0.74442       -1.48542
H         -1.49098        1.28727       -0.34106
H         -1.25024        1.50938       -2.10705

--Link1--
%chk=JID_2820.chk
%mem=8GB
%nprocshared=4
# B3LYP/6-311++G(d,p) empiricaldispersion=gd3bj scf=xqc pop=npa geom=check

CID_17826883_JID_2820_Energie_neutraal

0 1

--Link1--
%chk=JID_2820.chk
%mem=8GB
%nprocshared=4
# B3LYP/6-311++G(d,p) empiricaldispersion=gd3bj scf=xqc pop=npa geom=check

CID_17826883_JID_2820_Energie_kation

1 2

--Link1--
%chk=JID_2820.chk
%mem=8GB
%nprocshared=4
# B3LYP/6-311++G(d,p) empiricaldispersion=gd3bj scf=xqc pop=npa geom=check

CID_17826883_JID_2820_Energie_anion

-1 2
