%chk=JID_10890.chk
%mem=8GB
%nprocshared=4
# opt freq B3LYP/6-31G(d) empiricaldispersion=gd3bj scf=xqc

CID_103507390_JID_10890_neutraal

0 1
C          0.94198        0.05314        0.06172
C          0.90987        1.20300       -0.92988
N          0.76089        0.72216       -2.29301
C         -0.40740        0.43738       -2.96825
O         -0.31855       -0.31298       -3.94183
C         -1.65156        1.02331       -2.51918
C         -1.98863        2.33412       -2.26061
C         -3.32709        2.46271       -1.78137
C         -4.04206        1.27788       -1.84643
S         -2.99996       -0.01258       -2.30645
N         -5.35457        0.99584       -1.59541
C         -6.41600        1.91363       -1.97690
C         -6.90748        1.55512       -3.35893
C         -7.97769        0.76551       -3.55744
C         -6.16405        2.17430       -4.50966
O         -3.83922        3.65678       -1.37772
C         -4.09603        3.69925        0.03690
C         -2.80244        3.69805        0.85305
C         -4.86562        4.99281        0.29421
N         -1.16547        3.40273       -2.40956
H          0.00829       -0.51811        0.03179
H          1.08174        0.43009        1.07941
H          1.76212       -0.63610       -0.16520
H          0.10588        1.88666       -0.65806
H          1.85406        1.75510       -0.88990
H          1.54573        0.22320       -2.69278
H         -5.61887        0.03064       -1.78318
H         -7.23118        1.79729       -1.25208
H         -6.13295        2.96870       -1.93308
H         -8.33034        0.52828       -4.55692
H         -8.52444        0.32936       -2.72675
H         -6.14664        3.26447       -4.40806
H         -5.13330        1.81092       -4.54848
H         -6.63263        1.94175       -5.47197
H         -4.73186        2.86089        0.34544
H         -2.11364        4.47327        0.50084
H         -3.00620        3.86240        1.91589
H         -2.28002        2.74007        0.76061
H         -5.78828        5.01391       -0.29559
H         -5.12563        5.09902        1.35180
H         -4.27700        5.86529       -0.01160
H         -1.58077        4.33286       -2.40262
H         -0.33979        3.34171       -2.99985

--Link1--
%chk=JID_10890.chk
%mem=8GB
%nprocshared=4
# B3LYP/6-311++G(d,p) empiricaldispersion=gd3bj scf=xqc pop=npa geom=check

CID_103507390_JID_10890_Energie_neutraal

0 1

--Link1--
%chk=JID_10890.chk
%mem=8GB
%nprocshared=4
# B3LYP/6-311++G(d,p) empiricaldispersion=gd3bj scf=xqc pop=npa geom=check

CID_103507390_JID_10890_Energie_kation

1 2

--Link1--
%chk=JID_10890.chk
%mem=8GB
%nprocshared=4
# B3LYP/6-311++G(d,p) empiricaldispersion=gd3bj scf=xqc pop=npa geom=check

CID_103507390_JID_10890_Energie_anion

-1 2
