%chk=JID_8670.chk
%mem=8GB
%nprocshared=4
# opt freq B3LYP/6-31G(d) empiricaldispersion=gd3bj scf=xqc

CID_104259428_JID_8670_neutraal

0 1
C          0.94433        0.01042        0.08242
C          1.14454       -1.24748        0.90972
O          2.11452       -1.00206        1.93412
C          3.37351       -1.43224        1.59194
C          3.64208       -2.78976        1.41815
C          4.93567       -3.20441        1.10881
C          5.96862       -2.26829        0.99927
C          5.72630       -0.89987        1.19935
C          4.39986       -0.47919        1.47976
N          4.16504        0.87596        1.83183
N          6.75572        0.08466        1.15553
C          7.78145       -0.13764        0.11902
C          8.61150        1.13166       -0.13684
S          9.45868        1.75573        1.37307
C          8.13233        1.56791        2.63744
C          7.32905        0.26085        2.51136
C          7.24143        2.80664        2.68768
C          7.80507        2.22950       -0.82636
H          0.68709        0.85886        0.72498
H          0.14645       -0.13142       -0.65204
H          1.86340        0.27760       -0.44901
H          0.20553       -1.50032        1.41386
H          1.39840       -2.09325        0.25991
H          2.85454       -3.52649        1.54380
H          5.14833       -4.26223        0.97690
H          6.97065       -2.63211        0.79535
H          3.20068        1.14032        1.66234
H          4.85825        1.45704        1.36421
H          8.45649       -0.95466        0.40737
H          7.30334       -0.43140       -0.82517
H          9.42147        0.85832       -0.82407
H          8.66095        1.52774        3.59782
H          6.54145        0.26978        3.27695
H          7.98089       -0.59137        2.75081
H          6.55185        2.73933        3.53693
H          7.83421        3.71757        2.82640
H          6.63198        2.92943        1.79118
H          8.40927        3.12855       -0.98929
H          7.46988        1.88323       -1.81091
H          6.90857        2.51076       -0.27042

--Link1--
%chk=JID_8670.chk
%mem=8GB
%nprocshared=4
# B3LYP/6-311++G(d,p) empiricaldispersion=gd3bj scf=xqc pop=npa geom=check

CID_104259428_JID_8670_Energie_neutraal

0 1

--Link1--
%chk=JID_8670.chk
%mem=8GB
%nprocshared=4
# B3LYP/6-311++G(d,p) empiricaldispersion=gd3bj scf=xqc pop=npa geom=check

CID_104259428_JID_8670_Energie_kation

1 2

--Link1--
%chk=JID_8670.chk
%mem=8GB
%nprocshared=4
# B3LYP/6-311++G(d,p) empiricaldispersion=gd3bj scf=xqc pop=npa geom=check

CID_104259428_JID_8670_Energie_anion

-1 2
