%chk=JID_2698.chk
%mem=8GB
%nprocshared=4
# opt freq B3LYP/6-31G(d) empiricaldispersion=gd3bj scf=xqc

CID_87807824_JID_2698_neutraal

0 1
C          0.96985       -0.02242       -0.09267
C          0.15613        0.18314       -1.36328
C          0.53016       -0.80024       -2.48032
C          0.52074       -2.28261       -2.13973
N         -0.18950       -0.49910       -3.77460
C          0.75825       -0.36559       -4.92672
C         -1.47274       -0.07997       -3.89561
N         -2.49149       -0.35809       -3.06093
C         -3.73194        0.45988       -3.01189
C         -2.57729       -1.62127       -2.31202
S         -1.86100        0.95324       -5.28940
C         -2.65574       -0.27508       -6.35500
H          0.75387       -0.99230        0.36558
H          0.72537        0.75408        0.63931
H          2.04346        0.03358       -0.29829
H         -0.90070        0.13332       -1.10142
H          0.32460        1.20506       -1.72644
H          1.58761       -0.57102       -2.67913
H          0.45743       -2.89982       -3.04136
H          1.44757       -2.55354       -1.62064
H         -0.29111       -2.55846       -1.46546
H          0.28966       -0.71511       -5.85010
H          1.08716        0.67404       -5.01134
H          1.63247       -1.00547       -4.76596
H         -4.40795        0.15963       -3.81640
H         -4.23302        0.30094       -2.05102
H         -3.48939        1.52467       -3.07411
H         -2.01598       -2.40155       -2.82932
H         -2.24606       -1.48348       -1.28263
H         -3.61925       -1.96002       -2.28740
H         -1.96886       -1.09733       -6.57020
H         -3.55244       -0.67845       -5.87884
H         -2.94357        0.19645       -7.29810

--Link1--
%chk=JID_2698.chk
%mem=8GB
%nprocshared=4
# B3LYP/6-311++G(d,p) empiricaldispersion=gd3bj scf=xqc pop=npa geom=check

CID_87807824_JID_2698_Energie_neutraal

0 1

--Link1--
%chk=JID_2698.chk
%mem=8GB
%nprocshared=4
# B3LYP/6-311++G(d,p) empiricaldispersion=gd3bj scf=xqc pop=npa geom=check

CID_87807824_JID_2698_Energie_kation

1 2

--Link1--
%chk=JID_2698.chk
%mem=8GB
%nprocshared=4
# B3LYP/6-311++G(d,p) empiricaldispersion=gd3bj scf=xqc pop=npa geom=check

CID_87807824_JID_2698_Energie_anion

-1 2
