%chk=JID_3754.chk
%mem=8GB
%nprocshared=4
# opt freq B3LYP/6-31G(d) empiricaldispersion=gd3bj scf=xqc

CID_115660354_JID_3754_neutraal

0 1
C          0.90584       -0.00182       -0.03362
C          0.40003       -0.32667       -1.44280
C          0.90583       -1.72811       -1.81716
C          0.39916       -2.75784       -0.82049
C         -0.03546       -3.64114        0.03445
N         -1.06067       -0.14993       -1.42088
C         -1.70491       -0.02108       -2.72574
C         -1.95152       -1.31355       -3.45398
C         -2.76893       -2.30574       -2.91807
N         -3.03813       -3.48473       -3.52542
C         -2.46900       -3.68860       -4.73115
C         -1.65356       -2.76457       -5.36237
C         -1.39854       -1.55836       -4.71501
H          0.43398       -0.61012        0.74581
H          0.69781        1.04705        0.21083
H          1.99098       -0.13728        0.03704
H          0.84445        0.40317       -2.13093
H          0.60911       -2.01715       -2.82690
H          2.00267       -1.74511       -1.80000
H         -0.39369       -4.36826        0.72635
H         -1.49212       -0.89553       -0.87586
H         -2.68156        0.45486       -2.57078
H         -1.14403        0.68036       -3.35583
H         -3.24825       -2.17915       -1.95095
H         -2.69470       -4.64498       -5.19387
H         -1.22678       -2.97926       -6.33534
H         -0.76212       -0.81857       -5.19392

--Link1--
%chk=JID_3754.chk
%mem=8GB
%nprocshared=4
# B3LYP/6-311++G(d,p) empiricaldispersion=gd3bj scf=xqc pop=npa geom=check

CID_115660354_JID_3754_Energie_neutraal

0 1

--Link1--
%chk=JID_3754.chk
%mem=8GB
%nprocshared=4
# B3LYP/6-311++G(d,p) empiricaldispersion=gd3bj scf=xqc pop=npa geom=check

CID_115660354_JID_3754_Energie_kation

1 2

--Link1--
%chk=JID_3754.chk
%mem=8GB
%nprocshared=4
# B3LYP/6-311++G(d,p) empiricaldispersion=gd3bj scf=xqc pop=npa geom=check

CID_115660354_JID_3754_Energie_anion

-1 2
