%chk=JID_9649.chk
%mem=8GB
%nprocshared=4
# opt freq B3LYP/6-31G(d) empiricaldispersion=gd3bj scf=xqc

CID_66900576_JID_9649_neutraal

0 1
C          1.05633       -0.05357       -0.06291
N          0.67019       -0.39914        1.30461
C         -0.15355        0.61533        1.97028
C          0.70643       -1.69812        1.79923
C          1.54088       -2.72460        1.56459
C          2.80373       -2.71957        0.72940
C          2.83373       -3.85807       -0.30147
C          2.46428       -5.14326        0.35317
C          1.72145       -5.20087        1.51075
C          1.20195       -4.05344        2.22017
O          0.52347       -4.10645        3.24157
S          1.48471       -6.81367        1.97689
C          2.36221       -7.34017        0.57186
N          2.83508       -6.35765       -0.17517
N          2.55796       -8.66206        0.39245
C          1.98918       -9.26648       -0.59397
N          1.11717       -8.95857       -1.63105
C          0.89548       -9.95324       -2.67746
C          0.78085       -7.59425       -2.00965
H          0.39728        0.71637       -0.48049
H          0.99232       -0.91807       -0.73237
H          2.07812        0.33796       -0.07501
H         -1.19524        0.53370        1.64327
H         -0.11628        0.49715        3.05895
H          0.21001        1.62291        1.74034
H         -0.11045       -1.85560        2.50821
H          2.97277       -1.76972        0.21916
H          3.65327       -2.83941        1.41676
H          2.12385       -3.65075       -1.11102
H          3.83311       -3.93056       -0.74424
H          2.23876      -10.34290       -0.63091
H         -0.04129       -9.76529       -3.21294
H          1.71966       -9.93314       -3.39787
H          0.82395      -10.96158       -2.25573
H          0.34527       -7.04756       -1.16921
H          1.66246       -7.06858       -2.38835
H          0.02573       -7.57404       -2.80385

--Link1--
%chk=JID_9649.chk
%mem=8GB
%nprocshared=4
# B3LYP/6-311++G(d,p) empiricaldispersion=gd3bj scf=xqc pop=npa geom=check

CID_66900576_JID_9649_Energie_neutraal

0 1

--Link1--
%chk=JID_9649.chk
%mem=8GB
%nprocshared=4
# B3LYP/6-311++G(d,p) empiricaldispersion=gd3bj scf=xqc pop=npa geom=check

CID_66900576_JID_9649_Energie_kation

1 2

--Link1--
%chk=JID_9649.chk
%mem=8GB
%nprocshared=4
# B3LYP/6-311++G(d,p) empiricaldispersion=gd3bj scf=xqc pop=npa geom=check

CID_66900576_JID_9649_Energie_anion

-1 2
