%chk=JID_7044.chk
%mem=8GB
%nprocshared=4
# opt freq B3LYP/6-31G(d) empiricaldispersion=gd3bj scf=xqc

CID_64353117_JID_7044_neutraal

0 1
C          1.00778       -0.09024       -0.04239
C          0.08361        0.29974       -1.18843
C          0.48169       -0.25116       -2.57742
C          0.44143       -1.79272       -2.58038
C          0.51586       -2.44200       -3.96355
C          1.74388       -2.03881       -4.77679
N          1.56323       -0.68840       -5.31311
C          2.03716        0.44683       -4.52085
C          1.86336        0.28086       -3.00706
C          1.35001       -0.53080       -6.68619
C          0.57447       -1.44874       -7.41902
C          0.29486       -1.29891       -8.79043
C          0.90141       -0.25161       -9.49557
C          1.66199        0.68523       -8.78735
C          1.86709        0.55177       -7.40871
C          0.73535       -0.09269      -10.98031
N         -0.40359       -2.32390       -9.45527
H          1.01630       -1.17225        0.11689
H          0.66372        0.37596        0.88681
H          2.03429        0.24297       -0.22011
H         -0.93275       -0.03645       -0.94791
H          0.03705        1.39477       -1.24179
H         -0.27694        0.11845       -3.28059
H         -0.48871       -2.13043       -2.10565
H          1.26040       -2.18969       -1.96756
H          0.53431       -3.52974       -3.82223
H         -0.40316       -2.21447       -4.51708
H          2.65071       -2.09344       -4.16182
H          1.90848       -2.77349       -5.57473
H          1.47970        1.34874       -4.80635
H          3.09782        0.63263       -4.73097
H          2.03910        1.26827       -2.56035
H          2.65631       -0.36615       -2.61144
H          0.13621       -2.29997       -6.90661
H          2.11974        1.52552       -9.30425
H          2.48241        1.30332       -6.92372
H          1.04665       -1.00436      -11.50050
H         -0.30935        0.12737      -11.22223
H          1.34791        0.72802      -11.36869
H         -1.04258       -2.82727       -8.84780
H         -0.85933       -2.01482      -10.30696

--Link1--
%chk=JID_7044.chk
%mem=8GB
%nprocshared=4
# B3LYP/6-311++G(d,p) empiricaldispersion=gd3bj scf=xqc pop=npa geom=check

CID_64353117_JID_7044_Energie_neutraal

0 1

--Link1--
%chk=JID_7044.chk
%mem=8GB
%nprocshared=4
# B3LYP/6-311++G(d,p) empiricaldispersion=gd3bj scf=xqc pop=npa geom=check

CID_64353117_JID_7044_Energie_kation

1 2

--Link1--
%chk=JID_7044.chk
%mem=8GB
%nprocshared=4
# B3LYP/6-311++G(d,p) empiricaldispersion=gd3bj scf=xqc pop=npa geom=check

CID_64353117_JID_7044_Energie_anion

-1 2
