%chk=JID_27.chk
%mem=8GB
%nprocshared=4
# opt freq B3LYP/6-31G(d) empiricaldispersion=gd3bj scf=xqc

CID_130655930_JID_27_neutraal

0 1
C          1.06078        0.03435       -0.07160
C          0.53930       -1.36192       -0.39423
N          1.56137       -2.18922       -1.05536
C          0.97332       -3.42943       -1.59350
C          1.02858       -4.42766       -0.45308
C          2.39073       -4.14160        0.16216
C          2.60509       -2.63621       -0.10221
N          2.42672       -4.55682        1.56823
O          3.75478       -4.19048        2.04802
C          4.32978       -5.33091        2.68044
H          1.87389        0.01799        0.65968
H          0.25368        0.64486        0.34694
H          1.42322        0.53565       -0.97553
H          0.15773       -1.83516        0.51885
H         -0.31547       -1.23303       -1.07002
H          1.59688       -3.77827       -2.42641
H         -0.04023       -3.29935       -1.98804
H          0.21327       -4.24009        0.25694
H          0.94154       -5.46174       -0.80162
H          3.14518       -4.71174       -0.39708
H          2.60728       -2.05829        0.82844
H          3.59116       -2.48642       -0.55854
H          1.83501       -3.92838        2.11612
H          3.72644       -5.63170        3.54296
H          4.41975       -6.15912        1.97056
H          5.32910       -5.05961        3.03122

--Link1--
%chk=JID_27.chk
%mem=8GB
%nprocshared=4
# B3LYP/6-311++G(d,p) empiricaldispersion=gd3bj scf=xqc pop=npa geom=check

CID_130655930_JID_27_Energie_neutraal

0 1

--Link1--
%chk=JID_27.chk
%mem=8GB
%nprocshared=4
# B3LYP/6-311++G(d,p) empiricaldispersion=gd3bj scf=xqc pop=npa geom=check

CID_130655930_JID_27_Energie_kation

1 2

--Link1--
%chk=JID_27.chk
%mem=8GB
%nprocshared=4
# B3LYP/6-311++G(d,p) empiricaldispersion=gd3bj scf=xqc pop=npa geom=check

CID_130655930_JID_27_Energie_anion

-1 2
