%chk=JID_4757.chk
%mem=8GB
%nprocshared=4
# opt freq B3LYP/6-31G(d) empiricaldispersion=gd3bj scf=xqc

CID_116593371_JID_4757_neutraal

0 1
C          0.33400        1.00600       -0.17300
C          0.80096       -0.46202       -0.20158
C         -0.66662       -0.86512        0.10625
C         -0.82387        0.54657        0.73292
C         -0.89717       -2.15081        0.93670
O         -0.98096       -3.26675        0.39688
C         -1.04003       -2.04939        2.45393
N          0.26430       -1.74568        3.07521
C          1.16196       -2.91395        3.01100
C          2.53047       -2.59394        3.61668
C          2.38405       -2.10384        5.05760
C          1.40406       -0.93234        5.11588
C          0.07196       -1.31201        4.46763
N          3.67934       -1.71094        5.61693
H          0.00809        1.38384       -1.14883
H          1.03235        1.71922        0.27156
H          1.19663       -0.80940       -1.15968
H          1.51835       -0.71170        0.58824
H         -1.25454       -0.93124       -0.82409
H         -0.58794        0.62785        1.79851
H         -1.78325        1.03794        0.54862
H         -1.77663       -1.26207        2.65276
H         -1.46626       -2.98337        2.84081
H          1.32457       -3.21432        1.96969
H          0.72053       -3.77347        3.53267
H          3.02955       -1.83251        3.00218
H          3.16002       -3.49169        3.58433
H          1.99058       -2.92259        5.67300
H          1.22990       -0.63425        6.15702
H          1.82207       -0.05721        4.59971
H         -0.57843       -0.42908        4.49250
H         -0.41994       -2.09630        5.05782
H          4.33739       -2.48508        5.53136
H          4.07318       -0.94946        5.06396

--Link1--
%chk=JID_4757.chk
%mem=8GB
%nprocshared=4
# B3LYP/6-311++G(d,p) empiricaldispersion=gd3bj scf=xqc pop=npa geom=check

CID_116593371_JID_4757_Energie_neutraal

0 1

--Link1--
%chk=JID_4757.chk
%mem=8GB
%nprocshared=4
# B3LYP/6-311++G(d,p) empiricaldispersion=gd3bj scf=xqc pop=npa geom=check

CID_116593371_JID_4757_Energie_kation

1 2

--Link1--
%chk=JID_4757.chk
%mem=8GB
%nprocshared=4
# B3LYP/6-311++G(d,p) empiricaldispersion=gd3bj scf=xqc pop=npa geom=check

CID_116593371_JID_4757_Energie_anion

-1 2
