%chk=JID_9041.chk
%mem=8GB
%nprocshared=4
# opt freq B3LYP/6-31G(d) empiricaldispersion=gd3bj scf=xqc

CID_81917719_JID_9041_neutraal

0 1
C          1.03238       -0.07077       -0.06280
C          0.51529        0.96343       -1.05140
C          0.92991        0.65858       -2.49122
C          0.30845       -0.59885       -3.07170
C          0.59321       -0.42195       -4.55524
C          0.28259        1.08601       -4.88971
C          0.49823        1.75402       -3.47719
C         -1.23588        1.14434       -5.26889
N         -1.93813        2.40728       -5.06443
C          1.31962        1.60516       -6.01153
C          1.55725        0.58318       -7.17595
C          0.54193        0.59338       -8.30454
C          0.39888        1.98311       -8.88972
C          0.09385        3.02845       -7.82366
C          1.12525        3.03977       -6.66587
C          0.96512        4.24613       -5.67404
C          2.30745        4.65808       -5.04489
C          0.36166        5.50650       -6.31318
O          2.60361        1.62006       -5.33130
H          0.60283       -1.05818       -0.25695
H          0.76154        0.21639        0.95824
H          2.12279       -0.15197       -0.11355
H         -0.57716        1.01995       -0.97322
H          0.90531        1.94761       -0.76480
H          2.02453        0.56930       -2.53339
H          0.76807       -1.51203       -2.68169
H         -0.76835       -0.64650       -2.87563
H          0.00927       -1.12021       -5.16477
H          1.65339       -0.65748       -4.70813
H         -0.41840        2.22913       -3.11179
H          1.25949        2.53493       -3.47970
H         -1.38598        0.82722       -6.29982
H         -1.78555        0.41103       -4.66663
H         -2.90049        2.32156       -5.38837
H         -1.51941        3.16449       -5.59189
H          2.53971        0.79846       -7.62354
H          1.67028       -0.44121       -6.81074
H         -0.42471        0.21118       -7.97138
H          0.87575       -0.09189       -9.09336
H         -0.39330        1.98576       -9.64726
H          1.32699        2.25715       -9.40734
H         -0.92262        2.87565       -7.46324
H          0.09431        3.99545       -8.33857
H          2.07898        3.25161       -7.17736
H          0.29057        3.97172       -4.86260
H          3.02681        4.96050       -5.81372
H          2.17098        5.50697       -4.36524
H          2.76006        3.85843       -4.45713
H         -0.66523        5.33109       -6.64887
H          0.31732        6.32707       -5.58798
H          0.95980        5.84771       -7.16478
H          3.27906        1.95268       -5.94609

--Link1--
%chk=JID_9041.chk
%mem=8GB
%nprocshared=4
# B3LYP/6-311++G(d,p) empiricaldispersion=gd3bj scf=xqc pop=npa geom=check

CID_81917719_JID_9041_Energie_neutraal

0 1

--Link1--
%chk=JID_9041.chk
%mem=8GB
%nprocshared=4
# B3LYP/6-311++G(d,p) empiricaldispersion=gd3bj scf=xqc pop=npa geom=check

CID_81917719_JID_9041_Energie_kation

1 2

--Link1--
%chk=JID_9041.chk
%mem=8GB
%nprocshared=4
# B3LYP/6-311++G(d,p) empiricaldispersion=gd3bj scf=xqc pop=npa geom=check

CID_81917719_JID_9041_Energie_anion

-1 2
