%chk=JID_9780.chk
%mem=8GB
%nprocshared=4
# opt freq B3LYP/6-31G(d) empiricaldispersion=gd3bj scf=xqc

CID_103830725_JID_9780_neutraal

0 1
C          1.26600       -0.09700        0.26800
C          0.66716        1.10177       -0.44559
C         -0.64090        1.31565        0.29943
C         -1.16991       -0.10038        0.55020
C          0.07437       -1.00521        0.55862
N         -2.10544       -0.49170       -0.49794
C         -3.02740       -1.50182       -0.44882
O         -3.55690       -1.88155       -1.49497
C         -3.36514       -2.14556        0.89899
N         -2.34887       -3.16056        1.21664
C         -2.60894       -3.82380        2.49765
C         -1.64793       -5.01862        2.72718
C         -1.64042       -5.11088        4.22205
C         -1.21877       -6.16845        5.00955
C         -1.25672       -6.01581        6.39709
C         -1.69801       -4.81389        6.97324
C         -2.10859       -3.74764        6.17016
C         -2.08133       -3.91356        4.79604
C         -2.42837       -2.91192        3.73779
H          1.72923        0.22026        1.21013
H          2.03256       -0.59820       -0.33029
H          1.31873        1.97908       -0.40270
H          0.47565        0.86449       -1.49855
H         -1.33575        1.95012       -0.25982
H         -0.43418        1.80541        1.25923
H         -1.68503       -0.13802        1.51378
H          0.00918       -1.79343       -0.20063
H          0.20233       -1.49625        1.52946
H         -1.89677       -0.21156       -1.44892
H         -3.43487       -1.36884        1.66562
H         -4.35649       -2.60538        0.80889
H         -2.35597       -3.85474        0.46570
H         -3.63482       -4.22304        2.50103
H         -2.02691       -5.92944        2.25356
H         -0.63466       -4.80662        2.36710
H         -0.86326       -7.09248        4.56521
H         -0.93342       -6.83200        7.03858
H         -1.71197       -4.71090        8.05556
H         -2.43592       -2.81449        6.61697
H         -1.59856       -2.20749        3.61061
H         -3.34774       -2.36588        3.96964

--Link1--
%chk=JID_9780.chk
%mem=8GB
%nprocshared=4
# B3LYP/6-311++G(d,p) empiricaldispersion=gd3bj scf=xqc pop=npa geom=check

CID_103830725_JID_9780_Energie_neutraal

0 1

--Link1--
%chk=JID_9780.chk
%mem=8GB
%nprocshared=4
# B3LYP/6-311++G(d,p) empiricaldispersion=gd3bj scf=xqc pop=npa geom=check

CID_103830725_JID_9780_Energie_kation

1 2

--Link1--
%chk=JID_9780.chk
%mem=8GB
%nprocshared=4
# B3LYP/6-311++G(d,p) empiricaldispersion=gd3bj scf=xqc pop=npa geom=check

CID_103830725_JID_9780_Energie_anion

-1 2
