%chk=JID_8423.chk
%mem=8GB
%nprocshared=4
# opt freq B3LYP/6-31G(d) empiricaldispersion=gd3bj scf=xqc

CID_61427151_JID_8423_neutraal

0 1
C          0.98441        0.04455        0.08816
N         -0.21563        0.13942        0.92750
C         -0.76244        1.51080        0.84966
C         -2.22044        1.62558        1.33284
O         -2.76998        2.91211        1.02872
C         -2.40768        3.90911        1.97452
C          0.08389       -0.24058        2.33081
C          0.42941       -1.72778        2.56590
O         -0.74449       -2.55255        2.48618
C         -0.79279       -3.23222        1.30126
C         -0.06297       -4.40545        1.12756
C         -0.13562       -5.08561       -0.08748
C         -0.93746       -4.59010       -1.12067
C         -1.68602       -3.41867       -0.93489
C         -1.63025       -2.75757        0.29656
C         -2.51636       -2.84942       -2.02874
S         -3.41049       -3.73487       -3.12774
N         -2.52233       -1.48037       -2.12937
H          0.75156        0.32031       -0.94691
H          1.36153       -0.98119        0.04235
H          1.78914        0.69736        0.44473
H         -0.11999        2.21717        1.39001
H         -0.75693        1.85011       -0.19532
H         -2.83313        0.89235        0.79612
H         -2.32740        1.41838        2.40273
H         -2.75131        3.63216        2.97578
H         -1.32674        4.07197        1.97814
H         -2.89532        4.84493        1.68807
H          0.90935        0.37634        2.70893
H         -0.79057       -0.02701        2.95495
H          1.24912       -2.07616        1.92613
H          0.79223       -1.82749        3.59610
H          0.55520       -4.79020        1.93317
H          0.43345       -6.00022       -0.23413
H         -0.96285       -5.12328       -2.06806
H         -2.22447       -1.86824        0.48331
H         -1.95770       -0.87695       -1.54131
H         -3.06005       -1.04407       -2.86899

--Link1--
%chk=JID_8423.chk
%mem=8GB
%nprocshared=4
# B3LYP/6-311++G(d,p) empiricaldispersion=gd3bj scf=xqc pop=npa geom=check

CID_61427151_JID_8423_Energie_neutraal

0 1

--Link1--
%chk=JID_8423.chk
%mem=8GB
%nprocshared=4
# B3LYP/6-311++G(d,p) empiricaldispersion=gd3bj scf=xqc pop=npa geom=check

CID_61427151_JID_8423_Energie_kation

1 2

--Link1--
%chk=JID_8423.chk
%mem=8GB
%nprocshared=4
# B3LYP/6-311++G(d,p) empiricaldispersion=gd3bj scf=xqc pop=npa geom=check

CID_61427151_JID_8423_Energie_anion

-1 2
