%chk=JID_7857.chk
%mem=8GB
%nprocshared=4
# opt freq B3LYP/6-31G(d) empiricaldispersion=gd3bj scf=xqc

CID_555353_JID_7857_neutraal

0 1
C          0.95649       -0.07476        0.05018
O          0.04533       -1.16616        0.07092
C          0.44804       -2.31757       -0.54666
C         -0.50821       -3.33442       -0.56875
C         -0.23149       -4.56376       -1.17501
C          1.01005       -4.79135       -1.77798
C          1.97490       -3.77787       -1.73155
C          1.69527       -2.54623       -1.12567
C          1.35583       -6.07272       -2.41055
C          0.50436       -6.76401       -3.18341
N          0.75596       -7.96324       -3.82650
C          1.92932       -8.68261       -3.81264
O          2.98916       -8.41702       -3.26155
C          1.73977       -9.94428       -4.60265
C          0.36185       -9.82097       -5.20745
C         -0.20690       -8.57964       -4.59363
O         -1.35563       -8.20387       -4.79157
H          0.47387        0.77299        0.54602
H          1.18876        0.22816       -0.97625
H          1.86778       -0.31210        0.60888
H         -1.47913       -3.16945       -0.10772
H         -0.99573       -5.33676       -1.15892
H          2.95571       -3.93331       -2.17689
H          2.47513       -1.79234       -1.12279
H          2.37141       -6.41222       -2.22834
H         -0.49750       -6.37172       -3.35888
H          2.50975      -10.02581       -5.37514
H          1.80470      -10.80560       -3.93079
H          0.41159       -9.69924       -6.29372
H         -0.26255      -10.68509       -4.96403

--Link1--
%chk=JID_7857.chk
%mem=8GB
%nprocshared=4
# B3LYP/6-311++G(d,p) empiricaldispersion=gd3bj scf=xqc pop=npa geom=check

CID_555353_JID_7857_Energie_neutraal

0 1

--Link1--
%chk=JID_7857.chk
%mem=8GB
%nprocshared=4
# B3LYP/6-311++G(d,p) empiricaldispersion=gd3bj scf=xqc pop=npa geom=check

CID_555353_JID_7857_Energie_kation

1 2

--Link1--
%chk=JID_7857.chk
%mem=8GB
%nprocshared=4
# B3LYP/6-311++G(d,p) empiricaldispersion=gd3bj scf=xqc pop=npa geom=check

CID_555353_JID_7857_Energie_anion

-1 2
