%chk=JID_1289.chk
%mem=8GB
%nprocshared=4
# opt freq B3LYP/6-31G(d) empiricaldispersion=gd3bj scf=xqc

CID_152962747_JID_1289_neutraal

0 1
C          1.26600       -0.09700        0.26800
C          0.10258        0.75394       -0.22341
C         -1.03796        0.40864        0.72217
C         -0.87425       -1.09131        0.95676
C          0.64456       -1.30083        0.98203
N         -1.45980       -1.85604       -0.13842
C         -2.78565       -2.17368       -0.28232
C         -3.78070       -2.08402        0.60549
C         -5.08246       -2.55620        0.05096
C         -4.80498       -2.62173       -1.44711
C         -3.28849       -2.73325       -1.58560
H          1.87976        0.47360        0.97471
H          1.91578       -0.40241       -0.55809
H          0.33904        1.82202       -0.21568
H         -0.15870        0.47626       -1.25131
H         -2.01081        0.68543        0.30447
H         -0.90755        0.94897        1.66776
H         -1.31469       -1.40296        1.90992
H          0.95029       -2.24405        0.51604
H          1.00135       -1.32214        2.01877
H         -0.94285       -1.82515       -1.01404
H         -3.67308       -1.73891        1.62340
H         -5.89634       -1.85948        0.27126
H         -5.33549       -3.53973        0.45977
H         -5.32682       -3.45494       -1.92867
H         -5.15362       -1.69893       -1.92917
H         -2.97496       -3.77715       -1.69619
H         -2.93336       -2.16246       -2.44945

--Link1--
%chk=JID_1289.chk
%mem=8GB
%nprocshared=4
# B3LYP/6-311++G(d,p) empiricaldispersion=gd3bj scf=xqc pop=npa geom=check

CID_152962747_JID_1289_Energie_neutraal

0 1

--Link1--
%chk=JID_1289.chk
%mem=8GB
%nprocshared=4
# B3LYP/6-311++G(d,p) empiricaldispersion=gd3bj scf=xqc pop=npa geom=check

CID_152962747_JID_1289_Energie_kation

1 2

--Link1--
%chk=JID_1289.chk
%mem=8GB
%nprocshared=4
# B3LYP/6-311++G(d,p) empiricaldispersion=gd3bj scf=xqc pop=npa geom=check

CID_152962747_JID_1289_Energie_anion

-1 2
