%chk=JID_9682.chk
%mem=8GB
%nprocshared=4
# opt freq B3LYP/6-31G(d) empiricaldispersion=gd3bj scf=xqc

CID_55000874_JID_9682_neutraal

0 1
C          0.90206        0.01371       -0.01485
C          0.36256       -1.09871        0.87400
C          0.39786       -0.74925        2.37513
C         -0.53110        0.41231        2.74229
N          0.17505       -1.95437        3.20910
C          1.28732       -2.35706        4.08996
C          1.35051       -1.54815        5.39303
O          0.34249       -1.97766        6.31066
C         -0.67910       -1.01049        6.50878
C         -1.06503       -2.60618        3.18111
O         -2.01362       -2.17829        2.51775
C         -1.21435       -3.92570        3.96058
N         -0.55864       -5.02198        3.23509
C         -0.14098       -6.16151        3.92104
C          0.79066       -7.01161        3.30815
C          1.21551       -8.19241        3.92451
C          0.69067       -8.55896        5.15920
C         -0.26966       -7.75349        5.76336
C         -0.69172       -6.57404        5.13970
H          0.26698        0.90331        0.02564
H          0.93525       -0.32194       -1.05643
H          1.91706        0.29693        0.28095
H         -0.65616       -1.34288        0.55321
H          0.96643       -1.99883        0.70178
H          1.41624       -0.40355        2.59736
H         -1.56565        0.23132        2.43791
H         -0.52549        0.59121        3.82145
H         -0.20550        1.33949        2.25997
H          1.21976       -3.41894        4.33021
H          2.21752       -2.22595        3.52494
H          2.31167       -1.75401        5.87641
H          1.30334       -0.46917        5.20667
H         -0.25616       -0.07832        6.89524
H         -1.22190       -0.82558        5.57916
H         -1.38388       -1.40408        7.24617
H         -0.82397       -3.79469        4.97264
H         -2.28532       -4.14106        4.05399
H          0.10303       -4.70215        2.53319
H          1.19905       -6.75755        2.33322
H          1.94800       -8.82683        3.43324
H          1.01537       -9.47698        5.64090
H         -0.70233       -8.04455        6.71680
H         -1.46447       -5.98831        5.62859

--Link1--
%chk=JID_9682.chk
%mem=8GB
%nprocshared=4
# B3LYP/6-311++G(d,p) empiricaldispersion=gd3bj scf=xqc pop=npa geom=check

CID_55000874_JID_9682_Energie_neutraal

0 1

--Link1--
%chk=JID_9682.chk
%mem=8GB
%nprocshared=4
# B3LYP/6-311++G(d,p) empiricaldispersion=gd3bj scf=xqc pop=npa geom=check

CID_55000874_JID_9682_Energie_kation

1 2

--Link1--
%chk=JID_9682.chk
%mem=8GB
%nprocshared=4
# B3LYP/6-311++G(d,p) empiricaldispersion=gd3bj scf=xqc pop=npa geom=check

CID_55000874_JID_9682_Energie_anion

-1 2
