%chk=JID_6792.chk
%mem=8GB
%nprocshared=4
# opt freq B3LYP/6-31G(d) empiricaldispersion=gd3bj scf=xqc

CID_63862515_JID_6792_neutraal

0 1
C          1.03747       -0.06105        0.06978
C          0.63869        0.36930        1.47365
C          1.19435        1.73540        1.90288
N          0.35288        2.88684        1.58307
C         -0.19090        3.61785        2.72270
C          0.80255        4.53271        3.42528
O          0.52554        5.60345        3.94688
O          2.06165        4.05764        3.52312
C          0.22543        3.31599        0.19323
C         -1.12491        2.83717       -0.39695
C         -2.31577        3.72768       -0.05884
C         -2.06465        5.17696       -0.45062
C         -0.75612        5.72420        0.11148
C          0.44171        4.81131       -0.20499
C          1.75055        5.46999        0.27003
C          3.00893        4.68898       -0.07149
H          0.59923        0.57541       -0.70074
H          0.69532       -1.08420       -0.11751
H          2.12558       -0.04514       -0.04888
H         -0.45161        0.34192        1.58404
H          1.02893       -0.38568        2.16857
H          1.32686        1.67254        2.99097
H          2.20499        1.87800        1.50434
H         -1.05293        4.22127        2.44039
H         -0.56775        2.91446        3.47563
H          2.54362        4.76758        3.99365
H          0.99724        2.77448       -0.36899
H         -1.02465        2.79604       -1.49048
H         -1.35080        1.81163       -0.08528
H         -2.55531        3.65898        1.00636
H         -3.20126        3.36078       -0.59171
H         -2.90049        5.80101       -0.11433
H         -2.04018        5.25090       -1.54534
H         -0.85005        5.89291        1.18748
H         -0.58466        6.71563       -0.32748
H          0.51430        4.80263       -1.30483
H          1.83238        6.45518       -0.20835
H          1.72566        5.66929        1.34209
H          3.04963        4.45361       -1.13932
H          3.89514        5.28160        0.17824
H          3.07055        3.75679        0.49354

--Link1--
%chk=JID_6792.chk
%mem=8GB
%nprocshared=4
# B3LYP/6-311++G(d,p) empiricaldispersion=gd3bj scf=xqc pop=npa geom=check

CID_63862515_JID_6792_Energie_neutraal

0 1

--Link1--
%chk=JID_6792.chk
%mem=8GB
%nprocshared=4
# B3LYP/6-311++G(d,p) empiricaldispersion=gd3bj scf=xqc pop=npa geom=check

CID_63862515_JID_6792_Energie_kation

1 2

--Link1--
%chk=JID_6792.chk
%mem=8GB
%nprocshared=4
# B3LYP/6-311++G(d,p) empiricaldispersion=gd3bj scf=xqc pop=npa geom=check

CID_63862515_JID_6792_Energie_anion

-1 2
