%chk=JID_4834.chk
%mem=8GB
%nprocshared=4
# opt freq B3LYP/6-31G(d) empiricaldispersion=gd3bj scf=xqc

CID_146396813_JID_4834_neutraal

0 1
C          1.07629       -0.05574        0.03275
C          0.67918        0.30224       -1.39686
C          0.95525       -0.80852       -2.44451
C          0.25885       -2.15328       -2.09837
C         -1.25682       -2.14041       -1.79844
C         -2.11798       -1.73503       -2.99283
C         -1.68666       -3.53298       -1.31907
C          0.65939       -0.33444       -3.87661
C          1.02328       -1.12715       -4.96933
C          0.76316       -0.67589       -6.26082
C          0.15481        0.55822       -6.43971
C         -0.16321        1.29485       -5.31374
N          0.07952        0.88158       -4.04984
O          2.37781       -1.07355       -2.39114
H          0.48529       -0.88942        0.42152
H          0.90609        0.80271        0.69094
H          2.13574       -0.32096        0.09952
H         -0.37799        0.59334       -1.40997
H          1.25286        1.20015       -1.66512
H          0.45803       -2.88908       -2.88946
H          0.77159       -2.57541       -1.22162
H         -1.46066       -1.44331       -0.97804
H         -1.86951       -2.32187       -3.88317
H         -3.18103       -1.88928       -2.77656
H         -1.99873       -0.67490       -3.22701
H         -1.11990       -3.83185       -0.43082
H         -2.74880       -3.54307       -1.05182
H         -1.52518       -4.28811       -2.09600
H          1.51409       -2.08445       -4.81931
H          1.03784       -1.28353       -7.11826
H         -0.06187        0.93892       -7.43113
H         -0.63615        2.26915       -5.39802
H          2.81470       -0.27949       -2.74923

--Link1--
%chk=JID_4834.chk
%mem=8GB
%nprocshared=4
# B3LYP/6-311++G(d,p) empiricaldispersion=gd3bj scf=xqc pop=npa geom=check

CID_146396813_JID_4834_Energie_neutraal

0 1

--Link1--
%chk=JID_4834.chk
%mem=8GB
%nprocshared=4
# B3LYP/6-311++G(d,p) empiricaldispersion=gd3bj scf=xqc pop=npa geom=check

CID_146396813_JID_4834_Energie_kation

1 2

--Link1--
%chk=JID_4834.chk
%mem=8GB
%nprocshared=4
# B3LYP/6-311++G(d,p) empiricaldispersion=gd3bj scf=xqc pop=npa geom=check

CID_146396813_JID_4834_Energie_anion

-1 2
