%chk=JID_5248.chk
%mem=8GB
%nprocshared=4
# opt freq B3LYP/6-31G(d) empiricaldispersion=gd3bj scf=xqc

CID_153989880_JID_5248_neutraal

0 1
C          0.97420       -0.06471       -0.07174
C          1.14258        0.13832       -1.57032
C          1.46742       -1.14964       -2.33323
C          0.46844       -2.29734       -2.14824
C         -0.98438       -1.95755       -2.49255
C         -1.24144       -1.65547       -3.97135
C         -1.06456       -2.83907       -4.92676
C         -1.88037       -4.09024       -4.61652
S         -3.64953       -3.92679       -4.84263
O         -3.92537       -3.13310       -6.01567
O         -4.25675       -5.22588       -4.65404
N         -4.12859       -3.05082       -3.48401
C         -5.38292       -2.27154       -3.68703
C         -5.14672       -0.90652       -4.19285
N         -4.97563        0.18511       -4.55194
H          0.09582       -0.67440        0.15825
H          0.84354        0.90210        0.42506
H          1.85580       -0.54974        0.35910
H          0.23909        0.60418       -1.97906
H          1.95762        0.85305       -1.73753
H          1.56073       -0.91146       -3.39932
H          2.45674       -1.50402       -2.01682
H          0.80179       -3.15321       -2.74652
H          0.50644       -2.63608       -1.10584
H         -1.61991       -2.78636       -2.16394
H         -1.31197       -1.09540       -1.90101
H         -2.25584       -1.26107       -4.07570
H         -0.58455       -0.84181       -4.30052
H         -1.29833       -2.49697       -5.94239
H         -0.00450       -3.11958       -4.94362
H         -1.58191       -4.88062       -5.31611
H         -1.70143       -4.47990       -3.61075
H         -4.23564       -3.70337       -2.70406
H         -6.08165       -2.81969       -4.32832
H         -5.87319       -2.19955       -2.70824

--Link1--
%chk=JID_5248.chk
%mem=8GB
%nprocshared=4
# B3LYP/6-311++G(d,p) empiricaldispersion=gd3bj scf=xqc pop=npa geom=check

CID_153989880_JID_5248_Energie_neutraal

0 1

--Link1--
%chk=JID_5248.chk
%mem=8GB
%nprocshared=4
# B3LYP/6-311++G(d,p) empiricaldispersion=gd3bj scf=xqc pop=npa geom=check

CID_153989880_JID_5248_Energie_kation

1 2

--Link1--
%chk=JID_5248.chk
%mem=8GB
%nprocshared=4
# B3LYP/6-311++G(d,p) empiricaldispersion=gd3bj scf=xqc pop=npa geom=check

CID_153989880_JID_5248_Energie_anion

-1 2
