%chk=JID_10043.chk
%mem=8GB
%nprocshared=4
# opt freq B3LYP/6-31G(d) empiricaldispersion=gd3bj scf=xqc

CID_112725893_JID_10043_neutraal

0 1
C          0.99941        0.03421       -0.09397
C          0.30221        0.00218       -1.45877
C          0.60446       -1.29447       -2.17864
C          1.43544       -1.47945       -3.26912
C          1.51897       -2.84430       -3.66848
C          0.74184       -3.65984       -2.87821
S         -0.08731       -2.78196       -1.66880
N         -1.10675        0.26994       -1.24172
C         -1.84713        0.98913       -2.09401
N         -3.15180        1.14863       -2.06042
C         -3.40411        2.01415       -3.08984
C         -2.22125        2.32843       -3.73733
O         -1.21346        1.67344       -3.09516
C         -2.10842        3.17184       -4.83566
C         -3.31922        3.73528       -5.27530
C         -4.54610        3.45729       -4.64131
C         -4.60072        2.58753       -3.53983
N         -3.29795        4.64412       -6.43065
O         -2.22609        4.77746       -7.03727
O         -4.35257        5.22181       -6.72867
H          0.60037       -0.72536        0.58831
H          0.85981        1.00885        0.38774
H          2.07651       -0.13988       -0.19569
H          0.75561        0.81767       -2.03894
H          1.96940       -0.67096       -3.75480
H          2.11966       -3.20945       -4.49269
H          0.61785       -4.73156       -2.95349
H         -1.60397       -0.42099       -0.69219
H         -1.14902        3.37006       -5.29801
H         -5.47369        3.90882       -4.99181
H         -5.53848        2.36490       -3.04119

--Link1--
%chk=JID_10043.chk
%mem=8GB
%nprocshared=4
# B3LYP/6-311++G(d,p) empiricaldispersion=gd3bj scf=xqc pop=npa geom=check

CID_112725893_JID_10043_Energie_neutraal

0 1

--Link1--
%chk=JID_10043.chk
%mem=8GB
%nprocshared=4
# B3LYP/6-311++G(d,p) empiricaldispersion=gd3bj scf=xqc pop=npa geom=check

CID_112725893_JID_10043_Energie_kation

1 2

--Link1--
%chk=JID_10043.chk
%mem=8GB
%nprocshared=4
# B3LYP/6-311++G(d,p) empiricaldispersion=gd3bj scf=xqc pop=npa geom=check

CID_112725893_JID_10043_Energie_anion

-1 2
