%chk=JID_9291.chk
%mem=8GB
%nprocshared=4
# opt freq B3LYP/6-31G(d) empiricaldispersion=gd3bj scf=xqc

CID_80904444_JID_9291_neutraal

0 1
C          0.95837        0.05603       -0.07161
C          1.07521        1.56827       -0.19578
C          1.39202        2.05094       -1.61538
C          0.25162        1.85434       -2.59394
C         -0.77342        2.82408       -2.58537
C         -1.85876        2.73587       -3.45304
C         -1.93359        1.68076       -4.35037
C         -0.93078        0.70910       -4.36637
C          0.15684        0.75141       -3.47583
N          1.18804       -0.21852       -3.55339
C          1.08163       -1.58240       -3.93523
C          2.25466       -2.26440       -4.18893
C          2.14555       -3.58823       -4.55754
N          0.96101       -4.20699       -4.64186
C         -0.11909       -3.47920       -4.36277
N         -0.11008       -2.18733       -4.04050
N         -1.34791       -4.09875       -4.45928
N          3.28675       -4.37388       -4.84102
N          4.32076       -3.83785       -5.63872
H          0.11053       -0.33074       -0.64430
H          0.80364       -0.22212        0.97597
H          1.87071       -0.43903       -0.41836
H          0.15035        2.03132        0.16834
H          1.87915        1.90539        0.46981
H          1.61817        3.12542       -1.57108
H          2.31929        1.59676       -1.98017
H         -0.72345        3.66442       -1.89537
H         -2.63680        3.49389       -3.43396
H         -2.76669        1.60943       -5.04390
H         -1.00737       -0.09151       -5.09742
H          1.81692       -0.16484       -2.76259
H          3.21544       -1.77830       -4.10270
H         -2.06648       -3.40637       -4.61817
H         -1.29651       -4.87810       -5.09883
H          2.93196       -5.29014       -5.13618
H          3.94413       -3.40212       -6.48474
H          4.83912       -3.11752       -5.13394

--Link1--
%chk=JID_9291.chk
%mem=8GB
%nprocshared=4
# B3LYP/6-311++G(d,p) empiricaldispersion=gd3bj scf=xqc pop=npa geom=check

CID_80904444_JID_9291_Energie_neutraal

0 1

--Link1--
%chk=JID_9291.chk
%mem=8GB
%nprocshared=4
# B3LYP/6-311++G(d,p) empiricaldispersion=gd3bj scf=xqc pop=npa geom=check

CID_80904444_JID_9291_Energie_kation

1 2

--Link1--
%chk=JID_9291.chk
%mem=8GB
%nprocshared=4
# B3LYP/6-311++G(d,p) empiricaldispersion=gd3bj scf=xqc pop=npa geom=check

CID_80904444_JID_9291_Energie_anion

-1 2
