%chk=JID_1992.chk
%mem=8GB
%nprocshared=4
# opt freq B3LYP/6-31G(d) empiricaldispersion=gd3bj scf=xqc

CID_116497114_JID_1992_neutraal

0 1
C          1.00718        0.06858       -0.07242
C          0.75250       -0.62352        1.26218
C          1.08301        0.18377        2.53107
C          1.10657        1.70626        2.41154
O         -0.15103        2.18341        1.95718
C         -0.21748        3.60280        1.97006
C         -0.63956       -1.25367        1.28416
O         -0.76321       -2.48032        1.18184
C         -1.87489       -0.36744        1.42428
O         -2.25197       -0.06841        2.75832
C         -2.77547       -1.19848        3.44445
H          0.34399        0.92261       -0.23518
H          0.83500       -0.62681       -0.90197
H          2.04305        0.41614       -0.14053
H          1.43328       -1.48842        1.28679
H          0.39046       -0.09749        3.33353
H          2.07964       -0.12226        2.87644
H          1.32850        2.13363        3.39689
H          1.89340        2.02636        1.71924
H         -0.09665        3.98265        2.98916
H          0.54886        4.02796        1.31503
H         -1.20118        3.90410        1.60031
H         -1.70395        0.56947        0.88949
H         -2.70778       -0.85167        0.89887
H         -3.62153       -1.62767        2.89907
H         -1.99891       -1.95300        3.59739
H         -3.12819       -0.86716        4.42503

--Link1--
%chk=JID_1992.chk
%mem=8GB
%nprocshared=4
# B3LYP/6-311++G(d,p) empiricaldispersion=gd3bj scf=xqc pop=npa geom=check

CID_116497114_JID_1992_Energie_neutraal

0 1

--Link1--
%chk=JID_1992.chk
%mem=8GB
%nprocshared=4
# B3LYP/6-311++G(d,p) empiricaldispersion=gd3bj scf=xqc pop=npa geom=check

CID_116497114_JID_1992_Energie_kation

1 2

--Link1--
%chk=JID_1992.chk
%mem=8GB
%nprocshared=4
# B3LYP/6-311++G(d,p) empiricaldispersion=gd3bj scf=xqc pop=npa geom=check

CID_116497114_JID_1992_Energie_anion

-1 2
