%chk=JID_10117.chk
%mem=8GB
%nprocshared=4
# opt freq B3LYP/6-31G(d) empiricaldispersion=gd3bj scf=xqc

CID_43348800_JID_10117_neutraal

0 1
C          1.02161       -0.05642        0.07968
C          0.25349        1.26297        0.31875
C          0.66615        2.23439       -0.80888
C         -1.25257        0.95062        0.19334
C          0.53028        1.90017        1.69104
C          1.33954        1.28800        2.66179
C          1.57605        1.89861        3.89856
C          1.02703        3.14340        4.18828
C          0.19087        3.75391        3.26170
C         -0.04811        3.14068        2.02610
O          1.30890        3.65953        5.42200
C          1.72291        5.03460        5.43086
C          3.17521        5.21504        4.93377
N          3.28884        5.28665        3.46018
C          4.63555        4.91035        3.01255
C          4.64782        4.22143        1.64612
C          3.70294        4.78160        0.58788
N          3.65639        6.24101        0.53403
C          2.63764        6.75615        1.45635
C          2.93469        6.63825        2.96996
H          0.80744       -0.46328       -0.91598
H          0.73913       -0.82673        0.80668
H          2.10608        0.09164        0.14220
H          0.50130        1.78627       -1.79584
H          0.09525        3.16878       -0.78424
H          1.72850        2.49433       -0.73563
H         -1.58424        0.27776        0.99309
H         -1.86779        1.85551        0.24936
H         -1.47770        0.46668       -0.76422
H          1.80795        0.32415        2.48670
H          2.20767        1.40497        4.63174
H         -0.29292        4.69922        3.47931
H         -0.70170        3.65257        1.32331
H          1.00203        5.69008        4.93289
H          1.70190        5.33168        6.48646
H          3.61327        6.11463        5.38424
H          3.74250        4.35606        5.31416
H          5.09643        4.19565        3.70725
H          5.31062        5.77633        3.00943
H          5.67583        4.25344        1.26259
H          4.40576        3.15890        1.78044
H          4.04501        4.42192       -0.39010
H          2.69936        4.35682        0.71198
H          4.56673        6.62666        0.77517
H          1.66894        6.28854        1.23691
H          2.50347        7.82087        1.22938
H          2.02940        6.99211        3.47749
H          3.72315        7.35509        3.23762

--Link1--
%chk=JID_10117.chk
%mem=8GB
%nprocshared=4
# B3LYP/6-311++G(d,p) empiricaldispersion=gd3bj scf=xqc pop=npa geom=check

CID_43348800_JID_10117_Energie_neutraal

0 1

--Link1--
%chk=JID_10117.chk
%mem=8GB
%nprocshared=4
# B3LYP/6-311++G(d,p) empiricaldispersion=gd3bj scf=xqc pop=npa geom=check

CID_43348800_JID_10117_Energie_kation

1 2

--Link1--
%chk=JID_10117.chk
%mem=8GB
%nprocshared=4
# B3LYP/6-311++G(d,p) empiricaldispersion=gd3bj scf=xqc pop=npa geom=check

CID_43348800_JID_10117_Energie_anion

-1 2
