%chk=JID_3713.chk
%mem=8GB
%nprocshared=4
# opt freq B3LYP/6-31G(d) empiricaldispersion=gd3bj scf=xqc

CID_43538790_JID_3713_neutraal

0 1
C          0.90201       -0.01676       -0.01084
C          0.19355       -0.73774        1.13369
C          0.87649       -0.63857        2.51270
N          0.72305        0.59212        3.31552
C          1.05524        0.31421        4.71421
C          1.32444        1.81891        2.74970
C          2.82487        1.80547        2.41574
C          3.62005        2.17791        3.65355
S          2.63484        3.43921        4.49704
C          1.10427        3.11154        3.56736
C         -1.27794       -0.41848        1.25252
O         -2.10874       -1.11758        1.81367
O         -1.65241        0.74213        0.68477
H          0.78975        1.06820        0.01364
H          0.48478       -0.34451       -0.97050
H          1.97064       -0.25394       -0.01926
H          0.22289       -1.80055        0.84971
H          0.43994       -1.46120        3.09864
H          1.93689       -0.90105        2.41275
H          2.09567        0.00300        4.84119
H          0.85161        1.16561        5.36869
H          0.42207       -0.49444        5.09927
H          0.77311        1.99729        1.82345
H          3.01582        2.55032        1.63001
H          3.17081        0.85319        2.00460
H          3.76894        1.32355        4.31757
H          4.60491        2.57477        3.39073
H          0.94512        3.95811        2.88973
H          0.23594        3.06186        4.23102
H         -2.60804        0.80035        0.89482

--Link1--
%chk=JID_3713.chk
%mem=8GB
%nprocshared=4
# B3LYP/6-311++G(d,p) empiricaldispersion=gd3bj scf=xqc pop=npa geom=check

CID_43538790_JID_3713_Energie_neutraal

0 1

--Link1--
%chk=JID_3713.chk
%mem=8GB
%nprocshared=4
# B3LYP/6-311++G(d,p) empiricaldispersion=gd3bj scf=xqc pop=npa geom=check

CID_43538790_JID_3713_Energie_kation

1 2

--Link1--
%chk=JID_3713.chk
%mem=8GB
%nprocshared=4
# B3LYP/6-311++G(d,p) empiricaldispersion=gd3bj scf=xqc pop=npa geom=check

CID_43538790_JID_3713_Energie_anion

-1 2
