%chk=JID_5093.chk
%mem=8GB
%nprocshared=4
# opt freq B3LYP/6-31G(d) empiricaldispersion=gd3bj scf=xqc

CID_114969137_JID_5093_neutraal

0 1
C          1.07012        0.06832        0.02039
C          1.51679        0.62987        1.36059
C          2.58221        1.67654        1.16235
O          2.36026        2.71065        0.53040
C          3.97056        1.38408        1.70450
C          4.07177        1.56820        3.22080
C          3.95520        3.04614        3.62510
C          4.18810        3.21438        5.12171
O          5.46149        2.68475        5.49154
C          5.55511        1.28504        5.23592
C          5.39812        1.00030        3.74677
S          0.17835        1.29782        2.32716
O         -0.84715        0.27089        2.39570
O          0.73975        1.82041        3.56010
C         -0.50956        2.66581        1.41680
H          0.65162        0.84313       -0.62970
H          0.30871       -0.70747        0.14866
H          1.91832       -0.37642       -0.51168
H          1.92675       -0.18841        1.96379
H          4.22584        0.35696        1.41693
H          4.68530        2.03477        1.18582
H          3.25921        1.01337        3.70595
H          4.71146        3.62720        3.08183
H          2.97501        3.45246        3.35580
H          4.18124        4.27744        5.38236
H          3.40192        2.72355        5.70731
H          4.79983        0.75291        5.82620
H          6.53910        0.94801        5.57700
H          5.45190       -0.07913        3.56616
H          6.22991        1.46835        3.20488
H          0.19927        3.49294        1.39899
H         -0.76993        2.34003        0.40972
H         -1.41531        2.98486        1.93878

--Link1--
%chk=JID_5093.chk
%mem=8GB
%nprocshared=4
# B3LYP/6-311++G(d,p) empiricaldispersion=gd3bj scf=xqc pop=npa geom=check

CID_114969137_JID_5093_Energie_neutraal

0 1

--Link1--
%chk=JID_5093.chk
%mem=8GB
%nprocshared=4
# B3LYP/6-311++G(d,p) empiricaldispersion=gd3bj scf=xqc pop=npa geom=check

CID_114969137_JID_5093_Energie_kation

1 2

--Link1--
%chk=JID_5093.chk
%mem=8GB
%nprocshared=4
# B3LYP/6-311++G(d,p) empiricaldispersion=gd3bj scf=xqc pop=npa geom=check

CID_114969137_JID_5093_Energie_anion

-1 2
