%chk=JID_5600.chk
%mem=8GB
%nprocshared=4
# opt freq B3LYP/6-31G(d) empiricaldispersion=gd3bj scf=xqc

CID_60968059_JID_5600_neutraal

0 1
C          1.03878        0.06477        0.06558
C          0.25323        1.25466       -0.46353
C          0.98350        2.10648       -1.51463
N          0.84815        1.64491       -2.89886
C          1.05542        2.70909       -3.89899
C          2.41126        3.43100       -3.96137
O          3.38252        2.66752       -4.66588
C          1.45934        0.35946       -3.24855
C          2.88616        0.12550       -2.85474
N          3.79420        1.02261       -2.52092
N          4.97180        0.37781       -2.25890
C          4.77902       -0.91194       -2.42980
N          3.48030       -1.11459       -2.82221
C          2.85830       -2.37599       -3.13180
C          5.78462       -1.98028       -2.23598
H          1.11368       -0.74097       -0.66607
H          0.53460       -0.34976        0.94511
H          2.04858        0.35967        0.36749
H         -0.71796        0.92041       -0.84764
H          0.03230        1.90541        0.39274
H          0.51652        3.09921       -1.45210
H          2.02712        2.25969       -1.22111
H          0.81912        2.30939       -4.89363
H          0.28887        3.47259       -3.71107
H          2.28398        4.36449       -4.52003
H          2.79485        3.70108       -2.97252
H          3.83112        2.12018       -3.98460
H          0.83489       -0.42653       -2.80908
H          1.37474        0.19434       -4.33090
H          3.61675       -3.09741       -3.44380
H          2.34501       -2.73198       -2.23523
H          2.14722       -2.23962       -3.95009
H          6.03623       -2.45143       -3.19093
H          6.70469       -1.56790       -1.81000
H          5.41183       -2.74806       -1.55110

--Link1--
%chk=JID_5600.chk
%mem=8GB
%nprocshared=4
# B3LYP/6-311++G(d,p) empiricaldispersion=gd3bj scf=xqc pop=npa geom=check

CID_60968059_JID_5600_Energie_neutraal

0 1

--Link1--
%chk=JID_5600.chk
%mem=8GB
%nprocshared=4
# B3LYP/6-311++G(d,p) empiricaldispersion=gd3bj scf=xqc pop=npa geom=check

CID_60968059_JID_5600_Energie_kation

1 2

--Link1--
%chk=JID_5600.chk
%mem=8GB
%nprocshared=4
# B3LYP/6-311++G(d,p) empiricaldispersion=gd3bj scf=xqc pop=npa geom=check

CID_60968059_JID_5600_Energie_anion

-1 2
