%chk=JID_7753.chk
%mem=8GB
%nprocshared=4
# opt freq B3LYP/6-31G(d) empiricaldispersion=gd3bj scf=xqc

CID_81466800_JID_7753_neutraal

0 1
C          0.90579        0.00077       -0.03352
C          0.94409       -0.68224       -1.39562
C         -0.12337       -1.78206       -1.51373
C         -0.79439       -1.57402       -2.87949
C          0.16336       -0.61002       -3.59141
N          0.64263        0.24812       -2.49369
C          1.78942        1.04920       -2.90333
N         -2.11337       -0.95770       -2.66410
C         -3.01974       -0.83480       -3.72495
C         -4.02331        0.13851       -3.63013
C         -4.99867        0.27730       -4.61918
C         -5.00690       -0.58119       -5.71466
C         -4.05058       -1.59778       -5.82148
C         -3.07712       -1.71968       -4.80984
C         -4.05029       -2.57127       -6.98750
C         -5.33046       -3.40968       -7.02103
C         -3.83429       -1.85168       -8.32135
H          1.05742       -0.73161        0.76669
H         -0.05760        0.49301        0.14081
H          1.69217        0.75706        0.05557
H          1.93046       -1.14517       -1.53759
H          0.37012       -2.76164       -1.49166
H         -0.84885       -1.76277       -0.69185
H         -0.87673       -2.53739       -3.39089
H         -0.32547       -0.02230       -4.37506
H          0.98967       -1.17650       -4.04061
H          2.63991        0.43283       -3.21601
H          1.51595        1.70312       -3.73883
H          2.11924        1.70225       -2.08897
H         -1.99353       -0.06099       -2.18887
H         -4.05069        0.80773       -2.77370
H         -5.75627        1.05055       -4.52720
H         -5.77600       -0.46019       -6.47330
H         -2.36374       -2.53365       -4.88420
H         -3.21192       -3.26906       -6.86088
H         -6.21844       -2.79498       -7.20438
H         -5.27713       -4.16158       -7.81587
H         -5.47878       -3.93577       -6.07139
H         -2.91238       -1.25976       -8.30191
H         -3.75074       -2.57520       -9.13959
H         -4.66109       -1.17410       -8.56065

--Link1--
%chk=JID_7753.chk
%mem=8GB
%nprocshared=4
# B3LYP/6-311++G(d,p) empiricaldispersion=gd3bj scf=xqc pop=npa geom=check

CID_81466800_JID_7753_Energie_neutraal

0 1

--Link1--
%chk=JID_7753.chk
%mem=8GB
%nprocshared=4
# B3LYP/6-311++G(d,p) empiricaldispersion=gd3bj scf=xqc pop=npa geom=check

CID_81466800_JID_7753_Energie_kation

1 2

--Link1--
%chk=JID_7753.chk
%mem=8GB
%nprocshared=4
# B3LYP/6-311++G(d,p) empiricaldispersion=gd3bj scf=xqc pop=npa geom=check

CID_81466800_JID_7753_Energie_anion

-1 2
