%chk=JID_10749.chk
%mem=8GB
%nprocshared=4
# opt freq B3LYP/6-31G(d) empiricaldispersion=gd3bj scf=xqc

CID_84207435_JID_10749_neutraal

0 1
C          2.91400       -0.01100        0.00300
C          1.42287       -0.06343       -0.12613
C          0.73556       -1.17819        0.36252
C         -0.65388       -1.32445        0.21192
C         -1.37535       -0.28429       -0.40875
C         -0.68384        0.84754       -0.87687
C          0.70227        0.95208       -0.74921
C         -2.87071       -0.32734       -0.56344
C         -1.31007       -2.57669        0.75740
C         -1.08488       -3.85687       -0.07052
C          0.32214       -4.49070        0.00242
C          0.75654       -4.84520        1.39943
C          0.85347       -6.12899        1.88532
C          0.59226       -7.34645        1.08554
C         -0.14690       -6.93399       -0.21531
N          0.39974       -5.71909       -0.85643
N          1.28600       -6.00873        3.17209
C          1.43434       -4.67125        3.41805
N          1.12890       -3.94459        2.36629
C          1.55850       -7.07235        4.10109
H          3.21669       -0.21671        1.03505
H          3.37525       -0.74877       -0.66117
H          3.30216        0.97786       -0.26270
H          1.30690       -1.94502        0.88178
H         -1.22588        1.66469       -1.34831
H          1.20842        1.83487       -1.13098
H         -3.16944       -1.20433       -1.14571
H         -3.35279       -0.35285        0.41929
H         -3.24782        0.55831       -1.08642
H         -1.00695       -2.71477        1.80039
H         -2.39335       -2.42250        0.81790
H         -1.82368       -4.59101        0.27675
H         -1.32970       -3.64607       -1.12053
H          1.05370       -3.79724       -0.42313
H         -0.01216       -8.06848        1.64382
H          1.54659       -7.82241        0.83113
H         -1.21345       -6.79084       -0.00424
H         -0.08195       -7.76506       -0.92699
H         -0.09446       -5.53609       -1.72699
H          1.77039       -4.28115        4.37119
H          0.63386       -7.62951        4.27042
H          2.32644       -7.72070        3.67234
H          1.91457       -6.65160        5.04533

--Link1--
%chk=JID_10749.chk
%mem=8GB
%nprocshared=4
# B3LYP/6-311++G(d,p) empiricaldispersion=gd3bj scf=xqc pop=npa geom=check

CID_84207435_JID_10749_Energie_neutraal

0 1

--Link1--
%chk=JID_10749.chk
%mem=8GB
%nprocshared=4
# B3LYP/6-311++G(d,p) empiricaldispersion=gd3bj scf=xqc pop=npa geom=check

CID_84207435_JID_10749_Energie_kation

1 2

--Link1--
%chk=JID_10749.chk
%mem=8GB
%nprocshared=4
# B3LYP/6-311++G(d,p) empiricaldispersion=gd3bj scf=xqc pop=npa geom=check

CID_84207435_JID_10749_Energie_anion

-1 2
