%chk=JID_7624.chk
%mem=8GB
%nprocshared=4
# opt freq B3LYP/6-31G(d) empiricaldispersion=gd3bj scf=xqc

CID_122501297_JID_7624_neutraal

0 1
C          1.00650       -0.05206        0.08513
O          1.29832       -0.02895       -1.31432
C          1.46111        1.26514       -1.73936
C          0.35232        1.96887       -2.21018
C          0.51246        3.27904       -2.68115
C          1.79017        3.86498       -2.68627
C          2.90454        3.15224       -2.22364
C          2.73342        1.84503       -1.76140
N          3.84939        1.10767       -1.35064
C          5.10169        1.63154       -1.18194
O          6.05114        0.92019       -0.86278
C          5.21299        3.13658       -1.27143
C          4.29371        3.71572       -2.33551
C         -0.62608        4.08374       -3.20295
O         -0.50975        5.23258       -3.59961
O         -1.77634        3.36647       -3.17416
C         -2.91131        4.07188       -3.67972
H          0.84396       -1.09438        0.37512
H          0.09293        0.50902        0.31106
H          1.84645        0.33643        0.67101
H         -0.62045        1.48527       -2.21244
H          1.91790        4.87500       -3.07515
H          3.73737        0.11584       -1.17364
H          4.96259        3.54245       -0.28369
H          6.25088        3.40485       -1.49560
H          4.27340        4.80717       -2.23705
H          4.68014        3.47677       -3.33405
H         -3.11504        4.95735       -3.06946
H         -2.75548        4.34959       -4.72704
H         -3.77675        3.40587       -3.62382

--Link1--
%chk=JID_7624.chk
%mem=8GB
%nprocshared=4
# B3LYP/6-311++G(d,p) empiricaldispersion=gd3bj scf=xqc pop=npa geom=check

CID_122501297_JID_7624_Energie_neutraal

0 1

--Link1--
%chk=JID_7624.chk
%mem=8GB
%nprocshared=4
# B3LYP/6-311++G(d,p) empiricaldispersion=gd3bj scf=xqc pop=npa geom=check

CID_122501297_JID_7624_Energie_kation

1 2

--Link1--
%chk=JID_7624.chk
%mem=8GB
%nprocshared=4
# B3LYP/6-311++G(d,p) empiricaldispersion=gd3bj scf=xqc pop=npa geom=check

CID_122501297_JID_7624_Energie_anion

-1 2
