%chk=JID_8310.chk
%mem=8GB
%nprocshared=4
# opt freq B3LYP/6-31G(d) empiricaldispersion=gd3bj scf=xqc

CID_82575725_JID_8310_neutraal

0 1
C          1.03762        0.09019       -0.02121
C          0.23740       -0.36786        1.19837
C          0.77394        0.16162        2.52779
N          1.21339       -0.82726        3.35952
C          1.71778       -0.48177        4.55650
C          1.80724        0.82051        4.99779
C          1.34596        1.84437        4.16973
C          1.42875        3.17738        4.60645
C          0.95400        4.22227        3.81771
C          0.41529        3.94658        2.56714
C          0.35664        2.62715        2.10847
C          0.80695        1.53633        2.89571
O          0.02632        4.91474        1.68260
C         -1.04022        5.71856        2.18627
C         -0.54234        6.80645        3.12427
C         -0.06640        6.21442        4.44124
O          1.15336        5.48813        4.29353
N         -1.20804       -0.15706        1.01352
H          0.92642        1.15454       -0.23974
H          0.71747       -0.45672       -0.91574
H          2.10626       -0.10698        0.12108
H          0.36109       -1.45949        1.22712
H          2.06132       -1.30800        5.17219
H          2.22958        1.02532        5.97622
H          1.87234        3.41577        5.57106
H         -0.04645        2.47390        1.11333
H         -1.81828        5.09806        2.65120
H         -1.50363        6.19457        1.31464
H          0.28355        7.34796        2.64849
H         -1.35621        7.51273        3.32043
H          0.14724        7.03498        5.13558
H         -0.83957        5.59729        4.91866
H         -1.68443       -0.60196        1.79925
H         -1.43007        0.83163        1.07846

--Link1--
%chk=JID_8310.chk
%mem=8GB
%nprocshared=4
# B3LYP/6-311++G(d,p) empiricaldispersion=gd3bj scf=xqc pop=npa geom=check

CID_82575725_JID_8310_Energie_neutraal

0 1

--Link1--
%chk=JID_8310.chk
%mem=8GB
%nprocshared=4
# B3LYP/6-311++G(d,p) empiricaldispersion=gd3bj scf=xqc pop=npa geom=check

CID_82575725_JID_8310_Energie_kation

1 2

--Link1--
%chk=JID_8310.chk
%mem=8GB
%nprocshared=4
# B3LYP/6-311++G(d,p) empiricaldispersion=gd3bj scf=xqc pop=npa geom=check

CID_82575725_JID_8310_Energie_anion

-1 2
