%chk=JID_6299.chk
%mem=8GB
%nprocshared=4
# opt freq B3LYP/6-31G(d) empiricaldispersion=gd3bj scf=xqc

CID_116095802_JID_6299_neutraal

0 1
C          0.93549        0.03821        0.06617
C          0.67704       -0.96316       -1.05346
S          0.94188       -2.68237       -0.39777
C          2.64864       -4.25119       -1.29351
C          4.10250       -3.96468       -1.95981
O          4.26025       -2.59288       -2.09402
C          3.04141       -2.21960       -1.48648
C          1.69724       -2.97596       -2.69834
C          0.50852       -4.35851       -2.05736
C          0.79371       -5.11731       -0.31775
C          2.04627       -4.34138        0.91599
C          3.20617       -2.91510        0.32627
O         -0.49084       -5.19474        0.35541
C         -0.88545       -6.55789        0.26683
C          0.42254       -7.28970        0.28966
O          1.24534       -6.48847       -0.55231
H          0.32148       -0.17325        0.94830
H          0.67944        1.04720       -0.27463
H          1.98744        0.05031        0.36702
H         -0.38786       -0.91464       -1.30957
H          1.20724       -0.63980       -1.94958
H          3.01059       -5.01531       -0.58982
H          2.31183       -4.99252       -2.03839
H          4.90891       -4.37535       -1.33991
H          4.18217       -4.44647       -2.94183
H          3.05634       -1.12647       -1.47318
H          1.06704       -2.19367       -3.13762
H          2.22864       -3.40297       -3.56450
H          0.53572       -5.17626       -2.79485
H         -0.51549       -3.95198       -2.09168
H          2.69214       -5.14498        1.30358
H          1.48047       -3.96264        1.78309
H          4.23853       -3.25609        0.48627
H          3.04391       -2.07227        1.01681
H         -1.41357       -6.70077       -0.68206
H         -1.54675       -6.82474        1.09466
H          0.35687       -8.31127       -0.09206
H          0.86560       -7.30224        1.29138

--Link1--
%chk=JID_6299.chk
%mem=8GB
%nprocshared=4
# B3LYP/6-311++G(d,p) empiricaldispersion=gd3bj scf=xqc pop=npa geom=check

CID_116095802_JID_6299_Energie_neutraal

0 1

--Link1--
%chk=JID_6299.chk
%mem=8GB
%nprocshared=4
# B3LYP/6-311++G(d,p) empiricaldispersion=gd3bj scf=xqc pop=npa geom=check

CID_116095802_JID_6299_Energie_kation

1 2

--Link1--
%chk=JID_6299.chk
%mem=8GB
%nprocshared=4
# B3LYP/6-311++G(d,p) empiricaldispersion=gd3bj scf=xqc pop=npa geom=check

CID_116095802_JID_6299_Energie_anion

-1 2
