%chk=JID_2026.chk
%mem=8GB
%nprocshared=4
# opt freq B3LYP/6-31G(d) empiricaldispersion=gd3bj scf=xqc

CID_116146648_JID_2026_neutraal

0 1
C          0.98381       -0.07758       -0.06099
C          0.63222        0.57934       -1.39512
C          0.33026       -0.44193       -2.50834
C         -0.85321       -1.38474       -2.27628
C         -2.17911       -0.73437       -2.61133
O         -2.44545       -0.37279       -3.75858
N         -3.11042       -0.53108       -1.63703
C         -3.17719       -1.08836       -0.29931
C         -4.07009       -0.22729        0.58927
C         -3.72856       -2.48119       -0.42159
C         -3.09210       -3.58944       -0.01801
N         -0.45009        1.54100       -1.21569
H          0.12681       -0.58450        0.39182
H          1.33821        0.67103        0.65681
H          1.78387       -0.81409       -0.19087
H          1.51310        1.14736       -1.71963
H          0.19358        0.09707       -3.45520
H          1.22725       -1.06106       -2.64318
H         -0.76266       -2.23690       -2.96285
H         -0.82635       -1.81636       -1.27705
H         -3.96690       -0.15466       -2.02644
H         -2.17445       -1.10057        0.13512
H         -5.09026       -0.15815        0.19371
H         -4.12660       -0.63554        1.60421
H         -3.67595        0.79295        0.65616
H         -4.71386       -2.58511       -0.87324
H         -3.55019       -4.56659       -0.14176
H         -2.10757       -3.55378        0.43774
H         -0.20865        2.21006       -0.48626
H         -1.30825        1.08256       -0.91634

--Link1--
%chk=JID_2026.chk
%mem=8GB
%nprocshared=4
# B3LYP/6-311++G(d,p) empiricaldispersion=gd3bj scf=xqc pop=npa geom=check

CID_116146648_JID_2026_Energie_neutraal

0 1

--Link1--
%chk=JID_2026.chk
%mem=8GB
%nprocshared=4
# B3LYP/6-311++G(d,p) empiricaldispersion=gd3bj scf=xqc pop=npa geom=check

CID_116146648_JID_2026_Energie_kation

1 2

--Link1--
%chk=JID_2026.chk
%mem=8GB
%nprocshared=4
# B3LYP/6-311++G(d,p) empiricaldispersion=gd3bj scf=xqc pop=npa geom=check

CID_116146648_JID_2026_Energie_anion

-1 2
