%chk=JID_10090.chk
%mem=8GB
%nprocshared=4
# opt freq B3LYP/6-31G(d) empiricaldispersion=gd3bj scf=xqc

CID_87575614_JID_10090_neutraal

0 1
C          1.34400       -0.22500        0.03600
C          0.93490        1.09340        0.26168
C         -0.40198        1.47504        0.07626
C         -1.31465        0.50453       -0.36106
C         -0.90695       -0.81126       -0.59615
C          0.42340       -1.19192       -0.38843
C          0.85434       -2.62478       -0.58744
C          0.81706       -3.45754        0.70093
C         -0.58292       -3.76806        1.24840
C         -1.49862       -4.57605        0.31846
C         -0.97248       -5.93854       -0.13483
S         -0.78789       -7.12538        1.22806
C         -0.84155        2.84939        0.34513
C         -0.36612        3.92342       -0.42291
C         -0.79331        5.23130       -0.16947
C         -1.70130        5.48526        0.86234
C         -2.17997        4.42613        1.63769
C         -1.75382        3.11975        1.37817
C         -2.14036        6.82460        1.12370
N         -2.49689        7.90866        1.33572
H          2.38403       -0.49397        0.20702
H          1.66726        1.82118        0.60542
H         -2.35728        0.77024       -0.52434
H         -1.64294       -1.53767       -0.93167
H          0.25431       -3.09250       -1.37628
H          1.88270       -2.62362       -0.97250
H          1.34885       -4.39934        0.52299
H          1.38242       -2.93807        1.48550
H         -0.47015       -4.30013        2.20030
H         -1.09054       -2.83009        1.50273
H         -2.46761       -4.71016        0.81707
H         -1.71278       -3.98154       -0.57704
H         -1.68082       -6.37252       -0.84853
H         -0.01430       -5.84185       -0.65323
H          0.21132       -6.49317        1.85989
H          0.33499        3.74219       -1.23606
H         -0.41369        6.04477       -0.78492
H         -2.88461        4.60627        2.44745
H         -2.13195        2.30650        1.99598

--Link1--
%chk=JID_10090.chk
%mem=8GB
%nprocshared=4
# B3LYP/6-311++G(d,p) empiricaldispersion=gd3bj scf=xqc pop=npa geom=check

CID_87575614_JID_10090_Energie_neutraal

0 1

--Link1--
%chk=JID_10090.chk
%mem=8GB
%nprocshared=4
# B3LYP/6-311++G(d,p) empiricaldispersion=gd3bj scf=xqc pop=npa geom=check

CID_87575614_JID_10090_Energie_kation

1 2

--Link1--
%chk=JID_10090.chk
%mem=8GB
%nprocshared=4
# B3LYP/6-311++G(d,p) empiricaldispersion=gd3bj scf=xqc pop=npa geom=check

CID_87575614_JID_10090_Energie_anion

-1 2
