%chk=JID_9722.chk
%mem=8GB
%nprocshared=4
# opt freq B3LYP/6-31G(d) empiricaldispersion=gd3bj scf=xqc

CID_47174539_JID_9722_neutraal

0 1
C          1.07040       -0.06310        0.03260
O          2.40764       -0.54004       -0.02303
C          2.52701       -1.81876       -0.52604
C          3.81792       -2.28403       -0.77811
C          3.94493       -3.57336       -1.30802
C          2.80709       -4.33780       -1.54641
C          1.57265       -3.78218       -1.25835
N          1.40667       -2.53786       -0.76319
C          5.03008       -1.42105       -0.52886
N          5.14870       -0.41276       -1.58215
C          5.04235        0.89750       -1.11529
N          5.68035        1.28789        0.00952
C          5.53519        2.55949        0.43754
N          4.81673        3.54225       -0.11663
C          4.19609        3.14757       -1.24107
C          4.29342        1.86907       -1.75910
N          3.51337        1.89705       -2.88308
C          2.98750        3.15506       -2.99329
N          3.38412        3.93558       -2.01440
H          0.46949       -0.64874        0.73660
H          0.61089       -0.05145       -0.96189
H          1.09908        0.96841        0.39694
H          4.92590       -3.98564       -1.53267
H          2.88127       -5.34302       -1.94694
H          0.65542       -4.34027       -1.42493
H          4.97687       -1.01733        0.49053
H          5.93393       -2.04185       -0.55392
H          4.53574       -0.59841       -2.36373
H          6.06710        2.81448        1.34911
H          3.34540        1.12783       -3.51347
H          2.32591        3.43969       -3.80140

--Link1--
%chk=JID_9722.chk
%mem=8GB
%nprocshared=4
# B3LYP/6-311++G(d,p) empiricaldispersion=gd3bj scf=xqc pop=npa geom=check

CID_47174539_JID_9722_Energie_neutraal

0 1

--Link1--
%chk=JID_9722.chk
%mem=8GB
%nprocshared=4
# B3LYP/6-311++G(d,p) empiricaldispersion=gd3bj scf=xqc pop=npa geom=check

CID_47174539_JID_9722_Energie_kation

1 2

--Link1--
%chk=JID_9722.chk
%mem=8GB
%nprocshared=4
# B3LYP/6-311++G(d,p) empiricaldispersion=gd3bj scf=xqc pop=npa geom=check

CID_47174539_JID_9722_Energie_anion

-1 2
