%chk=JID_6834.chk
%mem=8GB
%nprocshared=4
# opt freq B3LYP/6-31G(d) empiricaldispersion=gd3bj scf=xqc

CID_104592705_JID_6834_neutraal

0 1
C         -2.13100       -0.04600       -0.06100
N         -0.68897       -0.00857       -0.05757
C          0.16045       -1.06355        0.07155
C          1.43642       -0.53824        0.00505
C          1.23479        0.86716       -0.16062
N         -0.06349        1.16773       -0.19474
N          2.27563        1.75146       -0.34010
C          2.25113        3.10040       -0.58482
O          3.20669        3.59923       -1.18514
C          1.18155        3.94856       -0.09041
C          0.41216        3.82838        1.05046
N         -0.42207        4.90523        1.07263
N         -0.21454        5.76606        0.06390
C          0.76666        5.18711       -0.63546
C          2.72169       -1.27825        0.11586
N          3.62648       -0.83068       -0.93851
H         -2.49266        0.54609        0.78348
H         -2.48520        0.37425       -1.00572
H         -2.46841       -1.08083        0.03647
H         -0.19697       -2.07606        0.19695
H          3.15074        1.29907       -0.58761
H          0.37506        3.07157        1.82012
H         -1.14089        5.12680        1.75280
H          1.14895        5.68297       -1.51907
H          3.17466       -1.08535        1.09401
H          2.55933       -2.35785        0.02649
H          4.48957       -1.37132       -0.87917
H          3.21577       -1.07252       -1.84222

--Link1--
%chk=JID_6834.chk
%mem=8GB
%nprocshared=4
# B3LYP/6-311++G(d,p) empiricaldispersion=gd3bj scf=xqc pop=npa geom=check

CID_104592705_JID_6834_Energie_neutraal

0 1

--Link1--
%chk=JID_6834.chk
%mem=8GB
%nprocshared=4
# B3LYP/6-311++G(d,p) empiricaldispersion=gd3bj scf=xqc pop=npa geom=check

CID_104592705_JID_6834_Energie_kation

1 2

--Link1--
%chk=JID_6834.chk
%mem=8GB
%nprocshared=4
# B3LYP/6-311++G(d,p) empiricaldispersion=gd3bj scf=xqc pop=npa geom=check

CID_104592705_JID_6834_Energie_anion

-1 2
