%chk=JID_10050.chk
%mem=8GB
%nprocshared=4
# opt freq B3LYP/6-31G(d) empiricaldispersion=gd3bj scf=xqc

CID_43662976_JID_10050_neutraal

0 1
C          1.01254        0.09464       -0.02977
C          1.22795       -0.81427        1.17257
C          2.03996       -2.04896        0.79623
N          2.10342       -3.07803        1.86247
C          2.49720       -4.44040        1.43197
C          2.82822       -4.86585        0.02651
C          3.91780       -4.76349        1.05059
S          2.73957       -2.65573        3.40085
O          3.02506       -3.85709        4.16078
O          3.78632       -1.67658        3.16836
C          1.40427       -1.84133        4.23965
C          0.16064       -2.46115        4.38728
C         -0.85898       -1.76577        5.04118
C         -0.62162       -0.49507        5.57770
C          0.61578        0.13028        5.42176
C          1.64227       -0.57261        4.79327
N          0.88359        1.33557        6.07590
O         -0.05455       -3.68834        3.82647
C         -0.65158       -4.67208        4.67894
C          0.37011       -5.28417        5.62194
H          1.96897        0.42756       -0.44544
H          0.44197        0.98136        0.26382
H          0.45511       -0.42127       -0.81807
H          1.74556       -0.23530        1.94206
H          0.25220       -1.10937        1.57394
H          1.55008       -2.49592       -0.07695
H          3.05475       -1.76864        0.49115
H          1.98346       -5.18397        2.04105
H          2.51497       -5.85757       -0.28101
H          2.84658       -4.14914       -0.78301
H          4.62548       -3.94716        0.96635
H          4.34320       -5.67779        1.44766
H         -1.85494       -2.18699        5.13702
H         -1.42221        0.00617        6.11632
H          2.63324       -0.12899        4.72565
H          1.66513        1.85680        5.68928
H          0.06774        1.92030        6.22763
H         -1.51589       -4.29045        5.23082
H         -1.03409       -5.45975        4.02014
H          0.79422       -4.52916        6.29122
H         -0.08900       -6.06877        6.23034
H          1.19989       -5.72200        5.05845

--Link1--
%chk=JID_10050.chk
%mem=8GB
%nprocshared=4
# B3LYP/6-311++G(d,p) empiricaldispersion=gd3bj scf=xqc pop=npa geom=check

CID_43662976_JID_10050_Energie_neutraal

0 1

--Link1--
%chk=JID_10050.chk
%mem=8GB
%nprocshared=4
# B3LYP/6-311++G(d,p) empiricaldispersion=gd3bj scf=xqc pop=npa geom=check

CID_43662976_JID_10050_Energie_kation

1 2

--Link1--
%chk=JID_10050.chk
%mem=8GB
%nprocshared=4
# B3LYP/6-311++G(d,p) empiricaldispersion=gd3bj scf=xqc pop=npa geom=check

CID_43662976_JID_10050_Energie_anion

-1 2
