%chk=JID_2353.chk
%mem=8GB
%nprocshared=4
# opt freq B3LYP/6-31G(d) empiricaldispersion=gd3bj scf=xqc

CID_107397957_JID_2353_neutraal

0 1
C          0.93667       -0.00906       -0.07686
C          0.77333       -1.52538       -0.09534
N          1.54036       -2.22261        0.92715
C          1.06505       -3.55628        1.29474
C          0.91089       -4.55112        0.14592
C          2.08676       -5.50602       -0.20879
C          1.03488       -6.60934       -0.43204
C          0.13307       -5.83928        0.54950
C          2.96817       -1.95408        1.07671
C          3.99859       -2.62970        0.13404
C          3.78462       -2.32487       -1.34549
N          5.36078       -2.20363        0.50804
H          0.75206        0.39732        0.92306
H          0.21630        0.45068       -0.76188
H          1.93539        0.29723       -0.40186
H         -0.29412       -1.72564        0.06420
H          1.00615       -1.89400       -1.09792
H          1.69012       -3.98290        2.08955
H          0.07999       -3.41899        1.76069
H          0.45628       -4.10447       -0.74929
H          2.67043       -5.24221       -1.09378
H          2.76775       -5.72068        0.62293
H          1.32647       -7.61590       -0.12277
H          0.64401       -6.64730       -1.45527
H          0.26463       -6.14495        1.59454
H         -0.93417       -5.84227        0.31244
H          3.13552       -0.87001        1.05685
H          3.23921       -2.22964        2.10644
H          3.96382       -3.71019        0.28634
H          3.72220       -1.24728       -1.53050
H          4.60626       -2.72226       -1.95290
H          2.87177       -2.79579       -1.71803
H          6.03800       -2.65699       -0.10432
H          5.46029       -1.20178        0.34504

--Link1--
%chk=JID_2353.chk
%mem=8GB
%nprocshared=4
# B3LYP/6-311++G(d,p) empiricaldispersion=gd3bj scf=xqc pop=npa geom=check

CID_107397957_JID_2353_Energie_neutraal

0 1

--Link1--
%chk=JID_2353.chk
%mem=8GB
%nprocshared=4
# B3LYP/6-311++G(d,p) empiricaldispersion=gd3bj scf=xqc pop=npa geom=check

CID_107397957_JID_2353_Energie_kation

1 2

--Link1--
%chk=JID_2353.chk
%mem=8GB
%nprocshared=4
# B3LYP/6-311++G(d,p) empiricaldispersion=gd3bj scf=xqc pop=npa geom=check

CID_107397957_JID_2353_Energie_anion

-1 2
