%chk=JID_6076.chk
%mem=8GB
%nprocshared=4
# opt freq B3LYP/6-31G(d) empiricaldispersion=gd3bj scf=xqc

CID_82471843_JID_6076_neutraal

0 1
C          1.04564        0.04992       -0.07366
C         -0.09223       -0.00740        0.93516
C          0.26243        0.67181        2.23386
C          0.56674       -0.08054        3.37600
C          0.89006        0.53929        4.59847
C          0.91404        1.94836        4.66865
C          0.60889        2.69801        3.52616
C          0.28912        2.06567        2.32133
O          1.23687        2.50586        5.88125
C          1.49650        3.90272        5.91673
C          1.19280       -0.30945        5.75384
C          0.74350       -0.34108        7.05733
N          1.31760       -1.33103        7.78979
C          2.13306       -1.92853        6.95315
N          2.09403       -1.35097        5.71599
N         -0.14574        0.47647        7.62823
H          1.29891        1.08312       -0.33372
H          0.76098       -0.46933       -0.99427
H          1.94838       -0.42806        0.32175
H         -0.98795        0.46573        0.51459
H         -0.35981       -1.05488        1.11990
H          0.52351       -1.16676        3.32065
H          0.60203        3.78280        3.54001
H          0.05120        2.67354        1.45067
H          2.28816        4.17988        5.21265
H          0.58197        4.47528        5.73206
H          1.84540        4.15151        6.92362
H          2.77094       -2.77108        7.18254
H          2.64463       -1.62508        4.91600
H         -0.22947        1.40795        7.23245
H         -0.15328        0.47280        8.64119

--Link1--
%chk=JID_6076.chk
%mem=8GB
%nprocshared=4
# B3LYP/6-311++G(d,p) empiricaldispersion=gd3bj scf=xqc pop=npa geom=check

CID_82471843_JID_6076_Energie_neutraal

0 1

--Link1--
%chk=JID_6076.chk
%mem=8GB
%nprocshared=4
# B3LYP/6-311++G(d,p) empiricaldispersion=gd3bj scf=xqc pop=npa geom=check

CID_82471843_JID_6076_Energie_kation

1 2

--Link1--
%chk=JID_6076.chk
%mem=8GB
%nprocshared=4
# B3LYP/6-311++G(d,p) empiricaldispersion=gd3bj scf=xqc pop=npa geom=check

CID_82471843_JID_6076_Energie_anion

-1 2
