%chk=JID_10436.chk
%mem=8GB
%nprocshared=4
# opt freq B3LYP/6-31G(d) empiricaldispersion=gd3bj scf=xqc

CID_25066054_JID_10436_neutraal

0 1
C          1.34400       -0.22500        0.03600
C          0.73977        1.04141        0.02675
C         -0.64906        1.17250       -0.05392
C         -1.42596        0.01497       -0.14801
C         -0.82394       -1.24832       -0.13758
C          0.56757       -1.39482       -0.04556
N          1.05613       -2.71780       -0.02789
C          2.22013       -2.84521       -0.08671
O          3.38838       -2.96806       -0.14153
N         -1.23398        2.45082       -0.09358
N         -1.87513        2.66654        0.95735
C         -2.51439        3.92504        0.96936
C         -3.61224        4.08625        1.82798
C         -4.28769        5.30868        1.92521
C         -3.85795        6.39432        1.15393
C         -2.76330        6.26023        0.29219
C         -2.09757        5.03088        0.20839
N         -4.55441        7.68344        1.25489
O         -5.51585        7.75930        2.03301
O         -4.13848        8.61916        0.55708
H          2.42840       -0.26703        0.11362
H          1.35914        1.93309        0.08963
H         -2.50708        0.09680       -0.22685
H         -1.45302       -2.13413       -0.20273
H         -3.94405        3.24389        2.43256
H         -5.13444        5.39415        2.60346
H         -2.41284        7.09376       -0.31339
H         -1.24127        4.94286       -0.45699

--Link1--
%chk=JID_10436.chk
%mem=8GB
%nprocshared=4
# B3LYP/6-311++G(d,p) empiricaldispersion=gd3bj scf=xqc pop=npa geom=check

CID_25066054_JID_10436_Energie_neutraal

0 1

--Link1--
%chk=JID_10436.chk
%mem=8GB
%nprocshared=4
# B3LYP/6-311++G(d,p) empiricaldispersion=gd3bj scf=xqc pop=npa geom=check

CID_25066054_JID_10436_Energie_kation

1 2

--Link1--
%chk=JID_10436.chk
%mem=8GB
%nprocshared=4
# B3LYP/6-311++G(d,p) empiricaldispersion=gd3bj scf=xqc pop=npa geom=check

CID_25066054_JID_10436_Energie_anion

-1 2
