%chk=JID_10983.chk
%mem=8GB
%nprocshared=4
# opt freq B3LYP/6-31G(d) empiricaldispersion=gd3bj scf=xqc

CID_11651866_JID_10983_neutraal

0 1
C          0.97404        0.05697        0.07798
C          0.42294       -0.56084       -1.21019
C          0.95766       -1.95501       -1.47848
O          0.38108       -2.88897       -2.01220
O          2.26599       -2.09262       -1.16384
N         -1.04454       -0.51663       -1.28591
C         -1.91847       -0.99861       -0.31813
C         -1.70219       -1.73345        0.86149
C         -2.80216       -2.03652        1.67134
C         -4.08487       -1.63732        1.31545
C         -4.30007       -0.93111        0.12976
C         -3.20583       -0.60992       -0.69818
C         -3.09420        0.06035       -1.94006
C         -1.76392        0.08017       -2.31461
C         -1.18869        0.63573       -3.53914
C         -0.52125       -0.18894       -4.45365
C          0.03623        0.35134       -5.61432
C         -0.08383        1.71544       -5.87620
C         -0.76563        2.53942       -4.98186
C         -1.31803        2.00118       -3.81788
H          0.93254       -0.63234        0.92555
H          0.43379        0.97102        0.34707
H          2.02928        0.32414       -0.05186
H          0.80104        0.06351       -2.02653
H          2.48042       -3.00559       -1.45322
H         -0.71624       -2.07566        1.15381
H         -2.65030       -2.59678        2.59104
H         -4.92797       -1.88376        1.95550
H         -5.30589       -0.63531       -0.15372
H         -3.91149        0.46550       -2.52278
H         -0.44096       -1.25885       -4.27136
H          0.55625       -0.29423       -6.31725
H          0.34585        2.13513       -6.78217
H         -0.87032        3.60086       -5.19072
H         -1.84787        2.65311       -3.12717

--Link1--
%chk=JID_10983.chk
%mem=8GB
%nprocshared=4
# B3LYP/6-311++G(d,p) empiricaldispersion=gd3bj scf=xqc pop=npa geom=check

CID_11651866_JID_10983_Energie_neutraal

0 1

--Link1--
%chk=JID_10983.chk
%mem=8GB
%nprocshared=4
# B3LYP/6-311++G(d,p) empiricaldispersion=gd3bj scf=xqc pop=npa geom=check

CID_11651866_JID_10983_Energie_kation

1 2

--Link1--
%chk=JID_10983.chk
%mem=8GB
%nprocshared=4
# B3LYP/6-311++G(d,p) empiricaldispersion=gd3bj scf=xqc pop=npa geom=check

CID_11651866_JID_10983_Energie_anion

-1 2
