%chk=JID_10265.chk
%mem=8GB
%nprocshared=4
# opt freq B3LYP/6-31G(d) empiricaldispersion=gd3bj scf=xqc

CID_80079116_JID_10265_neutraal

0 1
C          0.95678       -0.06272       -0.06480
C         -0.30666        0.56061       -0.67709
C         -0.39697        2.06687       -0.37010
C          0.48456        2.91054       -1.30699
C          0.36258        2.49263       -2.76879
C          0.54130        0.99007       -2.94210
N         -0.38544        0.23614       -2.10588
C         -1.79851        2.69468       -0.24309
O         -2.09627        3.36125        0.75226
N         -2.61772        2.73608       -1.34026
C         -3.32136        1.62816       -1.86664
C         -3.82877        1.74811       -3.16154
C         -4.53564        0.69642       -3.74705
C         -4.77045       -0.46316       -3.00824
C         -4.30366       -0.57603       -1.69408
C         -3.59383        0.47955       -1.12005
O         -4.62071       -1.75668       -1.07610
C         -4.04751       -1.98431        0.20602
O         -4.94351        0.92559       -5.03303
C         -5.49075       -0.18434       -5.73475
H          1.00478       -1.13768       -0.27272
H          0.95198        0.05605        1.02451
H          1.87516        0.39685       -0.44340
H         -1.13711        0.05362       -0.18005
H          0.01842        2.20413        0.64076
H          1.53284        2.79775       -1.00138
H          0.24836        3.97720       -1.21134
H          1.11792        3.02125       -3.36203
H         -0.61095        2.79889       -3.16755
H          1.57699        0.70309       -2.72776
H          0.35737        0.73028       -3.99057
H         -0.25015       -0.76334       -2.25395
H         -3.22886        3.54687       -1.30637
H         -3.64052        2.64737       -3.74247
H         -5.32510       -1.29856       -3.42234
H         -3.28150        0.43540       -0.08423
H         -2.95375       -1.94077        0.16610
H         -4.44525       -1.28068        0.94455
H         -4.32809       -2.99331        0.52325
H         -4.78450       -1.02104       -5.76839
H         -6.44736       -0.49075       -5.29935
H         -5.67969        0.13212       -6.76509

--Link1--
%chk=JID_10265.chk
%mem=8GB
%nprocshared=4
# B3LYP/6-311++G(d,p) empiricaldispersion=gd3bj scf=xqc pop=npa geom=check

CID_80079116_JID_10265_Energie_neutraal

0 1

--Link1--
%chk=JID_10265.chk
%mem=8GB
%nprocshared=4
# B3LYP/6-311++G(d,p) empiricaldispersion=gd3bj scf=xqc pop=npa geom=check

CID_80079116_JID_10265_Energie_kation

1 2

--Link1--
%chk=JID_10265.chk
%mem=8GB
%nprocshared=4
# B3LYP/6-311++G(d,p) empiricaldispersion=gd3bj scf=xqc pop=npa geom=check

CID_80079116_JID_10265_Energie_anion

-1 2
