%chk=JID_6714.chk
%mem=8GB
%nprocshared=4
# opt freq B3LYP/6-31G(d) empiricaldispersion=gd3bj scf=xqc

CID_79578314_JID_6714_neutraal

0 1
C          1.92800       -1.12000       -0.00800
C          0.54504       -0.60117        0.13521
C         -0.64404       -1.25023        0.43365
C         -1.60988       -0.21781        0.43069
N         -1.09037        0.97596        0.14532
N          0.21748        0.72026       -0.03603
C          1.11011        1.80409       -0.37456
C         -0.88078       -2.69738        0.71003
N         -0.79927       -3.40514       -0.56027
C         -0.99703       -4.85960       -0.55326
C         -2.45513       -5.27653       -0.79151
C         -3.33865       -5.09336        0.43359
C         -2.71405       -5.57557        1.72658
O         -3.39171       -5.85983        2.71078
N         -1.35039       -5.57547        1.81450
C         -0.46957       -5.63650        0.66602
H          2.60645       -0.60831        0.68235
H          1.97818       -2.19113        0.21046
H          2.29163       -0.96965       -1.02966
H         -2.67252       -0.29158        0.62339
H          1.85076        1.90229        0.42275
H          1.59340        1.56943       -1.32607
H          0.54043        2.73240       -0.46846
H         -0.11678       -3.04486        1.41341
H         -1.85989       -2.81393        1.18113
H         -1.40911       -2.95849       -1.24378
H         -0.42406       -5.21300       -1.42039
H         -2.46714       -6.33873       -1.07215
H         -2.88296       -4.73482       -1.64397
H         -4.27209       -5.64813        0.28231
H         -3.60570       -4.03937        0.56061
H         -1.00912       -5.93258        2.69963
H         -0.37287       -6.69818        0.40763
H          0.52215       -5.28799        0.97304

--Link1--
%chk=JID_6714.chk
%mem=8GB
%nprocshared=4
# B3LYP/6-311++G(d,p) empiricaldispersion=gd3bj scf=xqc pop=npa geom=check

CID_79578314_JID_6714_Energie_neutraal

0 1

--Link1--
%chk=JID_6714.chk
%mem=8GB
%nprocshared=4
# B3LYP/6-311++G(d,p) empiricaldispersion=gd3bj scf=xqc pop=npa geom=check

CID_79578314_JID_6714_Energie_kation

1 2

--Link1--
%chk=JID_6714.chk
%mem=8GB
%nprocshared=4
# B3LYP/6-311++G(d,p) empiricaldispersion=gd3bj scf=xqc pop=npa geom=check

CID_79578314_JID_6714_Energie_anion

-1 2
