%chk=JID_10555.chk
%mem=8GB
%nprocshared=4
# opt freq B3LYP/6-31G(d) empiricaldispersion=gd3bj scf=xqc

CID_20924677_JID_10555_neutraal

0 1
C          1.06417       -0.07669        0.00092
C          1.36108       -0.52574       -1.37851
N          2.39114        0.01473       -2.04562
O          2.37357       -0.57621       -3.30057
C          1.34551       -1.46660       -3.37591
N          1.05726       -2.18125       -4.47394
C         -0.01454       -2.95644       -4.27650
N         -0.74686       -3.08583       -3.15227
C         -0.39738       -2.36818       -2.06181
C          0.68423       -1.49112       -2.16350
N         -1.19225       -2.53831       -0.92223
C         -0.51232       -3.35288        0.08740
C         -1.48186       -3.68770        1.19869
C         -2.30659       -4.82065        1.06527
C         -3.22571       -5.15319        2.05817
C         -3.33398       -4.35697        3.19333
C         -2.52884       -3.22402        3.33576
C         -1.60852       -2.87514        2.34052
O         -0.77699       -1.78740        2.40746
C         -1.11182       -0.78030        3.35505
H         -0.01384       -0.06809        0.18763
H          1.43445        0.93920        0.17541
H          1.54130       -0.73944        0.72906
H         -0.33367       -3.55753       -5.12319
H         -2.00821       -3.05229       -1.25450
H         -0.14609       -4.29101       -0.35317
H          0.36895       -2.84358        0.49127
H         -2.23313       -5.45057        0.18089
H         -3.85528       -6.03224        1.94645
H         -4.04651       -4.61673        3.97228
H         -2.63878       -2.63714        4.24172
H         -0.91141       -1.12344        4.37491
H         -0.46924        0.08438        3.16286
H         -2.15108       -0.45279        3.24334

--Link1--
%chk=JID_10555.chk
%mem=8GB
%nprocshared=4
# B3LYP/6-311++G(d,p) empiricaldispersion=gd3bj scf=xqc pop=npa geom=check

CID_20924677_JID_10555_Energie_neutraal

0 1

--Link1--
%chk=JID_10555.chk
%mem=8GB
%nprocshared=4
# B3LYP/6-311++G(d,p) empiricaldispersion=gd3bj scf=xqc pop=npa geom=check

CID_20924677_JID_10555_Energie_kation

1 2

--Link1--
%chk=JID_10555.chk
%mem=8GB
%nprocshared=4
# B3LYP/6-311++G(d,p) empiricaldispersion=gd3bj scf=xqc pop=npa geom=check

CID_20924677_JID_10555_Energie_anion

-1 2
