%chk=JID_6767.chk
%mem=8GB
%nprocshared=4
# opt freq B3LYP/6-31G(d) empiricaldispersion=gd3bj scf=xqc

CID_148029311_JID_6767_neutraal

0 1
C          1.07022       -0.01488        0.06962
C          1.08388       -1.49204       -0.29801
C          1.07320       -2.42566        0.91780
C         -0.18975       -2.36444        1.78742
C         -1.40161       -3.00031        1.14106
C         -1.69246       -4.37617        1.25114
C         -2.80877       -4.85053        0.55368
N         -3.64866       -4.07836       -0.16896
C         -3.36165       -2.76598       -0.22754
C         -2.26620       -2.19087        0.39215
O         -3.18007       -6.16762        0.63441
C         -2.53110       -6.95495       -0.37374
C         -3.24733       -6.88780       -1.72448
C         -2.51759       -5.99849       -2.72344
O         -1.24029       -6.55796       -3.01472
C         -0.84632       -5.29693        2.08334
H          0.13115        0.27343        0.54979
H          1.18161        0.59660       -0.83164
H          1.89491        0.22839        0.74693
H          0.24436       -1.71465       -0.96478
H          1.99556       -1.69241       -0.87427
H          1.23150       -3.45225        0.56535
H          1.93711       -2.17942        1.54800
H          0.01573       -2.86398        2.74111
H         -0.41997       -1.32999        2.06783
H         -4.05538       -2.16492       -0.80787
H         -2.09291       -1.12436        0.29051
H         -1.45999       -6.72705       -0.44042
H         -2.59649       -7.98715       -0.00909
H         -3.27578       -7.90171       -2.14260
H         -4.27995       -6.54356       -1.60300
H         -3.08437       -5.94394       -3.65814
H         -2.37223       -4.98426       -2.34516
H         -0.81136       -5.95869       -3.64984
H         -1.25186       -6.31155        2.13637
H          0.16184       -5.36851        1.66440
H         -0.78898       -4.93437        3.11453

--Link1--
%chk=JID_6767.chk
%mem=8GB
%nprocshared=4
# B3LYP/6-311++G(d,p) empiricaldispersion=gd3bj scf=xqc pop=npa geom=check

CID_148029311_JID_6767_Energie_neutraal

0 1

--Link1--
%chk=JID_6767.chk
%mem=8GB
%nprocshared=4
# B3LYP/6-311++G(d,p) empiricaldispersion=gd3bj scf=xqc pop=npa geom=check

CID_148029311_JID_6767_Energie_kation

1 2

--Link1--
%chk=JID_6767.chk
%mem=8GB
%nprocshared=4
# B3LYP/6-311++G(d,p) empiricaldispersion=gd3bj scf=xqc pop=npa geom=check

CID_148029311_JID_6767_Energie_anion

-1 2
