%chk=JID_5333.chk
%mem=8GB
%nprocshared=4
# opt freq B3LYP/6-31G(d) empiricaldispersion=gd3bj scf=xqc

CID_144680166_JID_5333_neutraal

0 1
C          1.85400        1.50000       -0.02200
C          0.58809        0.69227       -0.10034
C          0.61183       -0.71552       -0.08834
C         -0.59848       -1.42454       -0.17001
C         -1.83060       -0.76013       -0.26040
C         -1.84107        0.63820       -0.24508
C         -0.64575        1.35509       -0.16940
C         -3.12614       -1.53524       -0.33396
C         -3.24410       -2.50317       -1.51091
C         -3.19423       -3.82438       -1.24072
C         -3.46583       -1.93660       -2.93793
C         -4.52432       -0.81291       -2.93587
C         -2.14724       -1.37987       -3.51071
C         -3.97098       -3.01012       -3.93618
C          1.90566       -1.47879       -0.01221
H          2.33626        1.35396        0.94963
H          2.54423        1.20927       -0.82027
H          1.65534        2.57077       -0.13859
H         -0.58296       -2.51310       -0.16981
H         -2.78056        1.18291       -0.30014
H         -0.68571        2.44219       -0.16754
H         -3.22203       -2.07741        0.61772
H         -3.98405       -0.85296       -0.33515
H         -3.27708       -4.59027       -2.00306
H         -3.05343       -4.19050       -0.22714
H         -4.18369        0.07209       -2.38829
H         -4.75079       -0.47944       -3.95567
H         -5.46276       -1.15299       -2.48293
H         -1.34184       -2.12083       -3.44953
H         -2.26152       -1.10427       -4.56602
H         -1.81731       -0.47738       -2.98943
H         -3.22275       -3.79302       -4.10528
H         -4.89418       -3.48348       -3.58205
H         -4.18895       -2.56848       -4.91630
H          1.73216       -2.55547        0.08895
H          2.49242       -1.31902       -0.92223
H          2.48766       -1.16119        0.85873

--Link1--
%chk=JID_5333.chk
%mem=8GB
%nprocshared=4
# B3LYP/6-311++G(d,p) empiricaldispersion=gd3bj scf=xqc pop=npa geom=check

CID_144680166_JID_5333_Energie_neutraal

0 1

--Link1--
%chk=JID_5333.chk
%mem=8GB
%nprocshared=4
# B3LYP/6-311++G(d,p) empiricaldispersion=gd3bj scf=xqc pop=npa geom=check

CID_144680166_JID_5333_Energie_kation

1 2

--Link1--
%chk=JID_5333.chk
%mem=8GB
%nprocshared=4
# B3LYP/6-311++G(d,p) empiricaldispersion=gd3bj scf=xqc pop=npa geom=check

CID_144680166_JID_5333_Energie_anion

-1 2
