%chk=JID_7507.chk
%mem=8GB
%nprocshared=4
# opt freq B3LYP/6-31G(d) empiricaldispersion=gd3bj scf=xqc

CID_80108187_JID_7507_neutraal

0 1
C          0.93337       -0.01173        0.07364
C          0.67400       -1.33642        0.79167
C          1.58873       -1.51523        2.03098
O          1.16734       -1.62067        3.18244
N          2.94703       -1.61439        1.86562
C          3.73394       -1.73039        0.62576
C          4.70683       -0.57194        0.36531
O          5.84002       -1.46935        0.32234
C          5.01200       -2.57362        0.75458
O         -0.70574       -1.62646        1.02476
C         -1.60864       -0.55719        1.29271
C         -1.52512        0.02611        2.67907
C         -1.70888       -0.79054        3.80304
C         -1.67252       -0.24934        5.08908
C         -1.46204        1.11641        5.26546
C         -1.28769        1.94153        4.15625
C         -1.32247        1.40064        2.86919
H          0.74831        0.84079        0.73434
H          0.28343        0.09211       -0.80142
H          1.96556        0.07848       -0.27047
H          0.97778       -2.13714        0.10679
H          3.40613       -1.73249        2.76510
H          3.14415       -2.01730       -0.24929
H          4.56647       -0.05360       -0.58750
H          4.81458        0.16181        1.17031
H          5.28380       -2.89819        1.76394
H          5.07897       -3.42168        0.06696
H         -1.54407        0.21581        0.52009
H         -2.61788       -0.97441        1.18412
H         -1.85503       -1.86146        3.67709
H         -1.79710       -0.89849        5.95138
H         -1.42891        1.53508        6.26741
H         -1.12444        3.00690        4.29434
H         -1.19285        2.06251        2.01665

--Link1--
%chk=JID_7507.chk
%mem=8GB
%nprocshared=4
# B3LYP/6-311++G(d,p) empiricaldispersion=gd3bj scf=xqc pop=npa geom=check

CID_80108187_JID_7507_Energie_neutraal

0 1

--Link1--
%chk=JID_7507.chk
%mem=8GB
%nprocshared=4
# B3LYP/6-311++G(d,p) empiricaldispersion=gd3bj scf=xqc pop=npa geom=check

CID_80108187_JID_7507_Energie_kation

1 2

--Link1--
%chk=JID_7507.chk
%mem=8GB
%nprocshared=4
# B3LYP/6-311++G(d,p) empiricaldispersion=gd3bj scf=xqc pop=npa geom=check

CID_80108187_JID_7507_Energie_anion

-1 2
