%chk=JID_7558.chk
%mem=8GB
%nprocshared=4
# opt freq B3LYP/6-31G(d) empiricaldispersion=gd3bj scf=xqc

CID_65546080_JID_7558_neutraal

0 1
C          1.07267        0.01589        0.06683
C          0.61286        1.48556        0.05928
C          1.43504        2.36176       -0.87194
C          1.84327        1.94039       -2.14337
C          2.59487        2.80084       -2.93070
N          2.96768        4.03831       -2.54693
C          2.57562        4.43179       -1.31886
C          1.82402        3.64377       -0.45986
N         -0.84297        1.56896       -0.10984
C         -1.42161        1.17665       -1.40048
C         -1.71538        2.34046       -2.35778
O         -2.52082        3.33439       -1.72035
C         -1.83930        3.86622       -0.57705
C         -1.48915        2.78101        0.46023
C         -2.76495        2.43543        1.24378
O         -3.50898        3.25163        1.77265
O         -3.02401        1.12091        1.40130
H          0.91437       -0.49294       -0.88868
H          0.53433       -0.55117        0.83530
H          2.14207       -0.05095        0.29911
H          0.84168        1.81724        1.08280
H          1.58451        0.96207       -2.53262
H          2.92552        2.50546       -3.92256
H          2.89206        5.43012       -1.03008
H          1.55271        4.03022        0.51717
H         -2.37805        0.68453       -1.18273
H         -0.82024        0.42045       -1.91395
H         -0.80236        2.80695       -2.73946
H         -2.27626        1.96943       -3.22184
H         -2.49041        4.63344       -0.14472
H         -0.93632        4.38049       -0.92376
H         -0.83593        3.22200        1.22446
H         -3.85214        1.10330        1.92176

--Link1--
%chk=JID_7558.chk
%mem=8GB
%nprocshared=4
# B3LYP/6-311++G(d,p) empiricaldispersion=gd3bj scf=xqc pop=npa geom=check

CID_65546080_JID_7558_Energie_neutraal

0 1

--Link1--
%chk=JID_7558.chk
%mem=8GB
%nprocshared=4
# B3LYP/6-311++G(d,p) empiricaldispersion=gd3bj scf=xqc pop=npa geom=check

CID_65546080_JID_7558_Energie_kation

1 2

--Link1--
%chk=JID_7558.chk
%mem=8GB
%nprocshared=4
# B3LYP/6-311++G(d,p) empiricaldispersion=gd3bj scf=xqc pop=npa geom=check

CID_65546080_JID_7558_Energie_anion

-1 2
