%chk=JID_4491.chk
%mem=8GB
%nprocshared=4
# opt freq B3LYP/6-31G(d) empiricaldispersion=gd3bj scf=xqc

CID_110718982_JID_4491_neutraal

0 1
C          0.97174        0.09529        0.01104
C          0.85709       -1.41169        0.18862
C          0.74009       -1.86406        1.64466
C         -0.34143       -1.19380        2.48642
S         -1.89482       -2.07711        2.65423
O         -1.73207       -3.46157        2.28811
O         -2.42380       -1.72182        3.95742
N         -2.94054       -1.32953        1.59685
C         -2.83021       -1.42484        0.14576
C         -2.93450       -2.81717       -0.35392
C         -3.92945       -3.74692       -0.14428
O         -3.58474       -4.89415       -0.79048
C         -2.38374       -4.59818       -1.35643
N         -1.96060       -3.36899       -1.16147
H          0.03259        0.60463        0.24322
H          1.21976        0.33074       -1.02917
H          1.76058        0.50807        0.64762
H          0.02102       -1.79144       -0.39942
H          1.75473       -1.87672       -0.23852
H          0.64671       -2.95506        1.67124
H          1.70592       -1.64027        2.11792
H          0.03788       -1.15028        3.51659
H         -0.56065       -0.16089        2.20946
H         -3.35827       -0.48064        1.97333
H         -3.65984       -0.85014       -0.28483
H         -1.92355       -0.92550       -0.19629
H         -4.85545       -3.76165        0.41086
H         -1.90318       -5.39148       -1.91103

--Link1--
%chk=JID_4491.chk
%mem=8GB
%nprocshared=4
# B3LYP/6-311++G(d,p) empiricaldispersion=gd3bj scf=xqc pop=npa geom=check

CID_110718982_JID_4491_Energie_neutraal

0 1

--Link1--
%chk=JID_4491.chk
%mem=8GB
%nprocshared=4
# B3LYP/6-311++G(d,p) empiricaldispersion=gd3bj scf=xqc pop=npa geom=check

CID_110718982_JID_4491_Energie_kation

1 2

--Link1--
%chk=JID_4491.chk
%mem=8GB
%nprocshared=4
# B3LYP/6-311++G(d,p) empiricaldispersion=gd3bj scf=xqc pop=npa geom=check

CID_110718982_JID_4491_Energie_anion

-1 2
