%chk=JID_5727.chk
%mem=8GB
%nprocshared=4
# opt freq B3LYP/6-31G(d) empiricaldispersion=gd3bj scf=xqc

CID_104253333_JID_5727_neutraal

0 1
C          0.90290       -0.02216        0.00896
C          0.51118        0.78443       -1.22848
C          0.59195        0.02814       -2.57052
C          0.12341       -1.39194       -2.53078
N         -1.11671       -1.82506       -2.63225
C         -1.04754       -3.19110       -2.55429
C          0.25559       -3.60808       -2.41215
N          0.99156       -2.44947       -2.40886
C          0.86655       -4.94993       -2.27328
N          1.93775       -5.10212       -3.25714
C          2.61793       -6.39555       -3.13507
C          2.04888       -7.61406       -3.80590
C          3.29887       -6.97796       -4.34191
O         -0.70695        1.50879       -1.01021
C         -1.90461        0.74680       -1.05627
H          0.20032       -0.83540        0.21381
H          0.89716        0.62146        0.89556
H          1.90454       -0.44938       -0.10137
H          1.25801        1.58567       -1.30724
H          0.02067        0.56723       -3.33568
H          1.63855        0.02844       -2.90336
H         -1.94070       -3.80042       -2.60547
H          2.00015       -2.40036       -2.35163
H          1.26577       -5.05652       -1.25741
H          0.10434       -5.72510       -2.41606
H          1.52638       -4.99662       -4.18569
H          3.12850       -6.55019       -2.18567
H          2.14321       -8.56373       -3.29151
H          1.14089       -7.51750       -4.38923
H          3.23679       -6.44794       -5.28493
H          4.23871       -7.49644       -4.19003
H         -2.15594        0.49636       -2.08943
H         -1.84416       -0.15090       -0.43668
H         -2.71324        1.37172       -0.66593

--Link1--
%chk=JID_5727.chk
%mem=8GB
%nprocshared=4
# B3LYP/6-311++G(d,p) empiricaldispersion=gd3bj scf=xqc pop=npa geom=check

CID_104253333_JID_5727_Energie_neutraal

0 1

--Link1--
%chk=JID_5727.chk
%mem=8GB
%nprocshared=4
# B3LYP/6-311++G(d,p) empiricaldispersion=gd3bj scf=xqc pop=npa geom=check

CID_104253333_JID_5727_Energie_kation

1 2

--Link1--
%chk=JID_5727.chk
%mem=8GB
%nprocshared=4
# B3LYP/6-311++G(d,p) empiricaldispersion=gd3bj scf=xqc pop=npa geom=check

CID_104253333_JID_5727_Energie_anion

-1 2
