%chk=JID_10180.chk
%mem=8GB
%nprocshared=4
# opt freq B3LYP/6-31G(d) empiricaldispersion=gd3bj scf=xqc

CID_115981537_JID_10180_neutraal

0 1
C          0.98656       -0.07872        0.06019
C          0.42946        1.16056       -0.62123
C          1.29928        1.68266       -1.78589
C          0.72744        3.03698       -2.27735
C          1.79739        4.05982       -2.65213
N          2.05439        3.86722       -4.08144
C          0.73243        3.57551       -4.64406
C         -0.00372        2.74772       -3.59505
C          0.08874        1.23790       -3.79962
N          1.19732        0.78011       -2.95766
C          2.38219        0.28880       -3.50174
C          3.26266       -0.44867       -2.69644
C          4.45319       -0.98476       -3.21015
C          4.81238       -0.77987       -4.54333
C          3.95534       -0.05815       -5.37386
C          2.75418        0.45537       -4.84685
C          4.33640        0.22987       -6.79728
N          5.32556       -1.77672       -2.33562
O          5.02694       -1.85590       -1.13561
O          6.31475       -2.32145       -2.84850
H          0.96719       -0.94238       -0.61064
H          0.37763       -0.32987        0.93492
H          2.01254        0.08534        0.40335
H         -0.59149        0.94902       -0.96156
H          0.35098        1.94583        0.14135
H          2.32946        1.80569       -1.42926
H          0.05375        3.48306       -1.53640
H          2.71356        3.96596       -2.06131
H          1.41365        5.07586       -2.49754
H          2.63817        3.03401       -4.17977
H          0.20543        4.52384       -4.80605
H          0.80741        3.07978       -5.61649
H         -1.05500        3.05577       -3.55808
H          0.13702        0.93818       -4.85037
H         -0.82658        0.77521       -3.40820
H          3.00094       -0.63586       -1.66055
H          5.74463       -1.17742       -4.93963
H          2.12409        1.02456       -5.52430
H          3.45522        0.21149       -7.44674
H          4.80723        1.21587       -6.86315
H          5.03822       -0.51959       -7.17766

--Link1--
%chk=JID_10180.chk
%mem=8GB
%nprocshared=4
# B3LYP/6-311++G(d,p) empiricaldispersion=gd3bj scf=xqc pop=npa geom=check

CID_115981537_JID_10180_Energie_neutraal

0 1

--Link1--
%chk=JID_10180.chk
%mem=8GB
%nprocshared=4
# B3LYP/6-311++G(d,p) empiricaldispersion=gd3bj scf=xqc pop=npa geom=check

CID_115981537_JID_10180_Energie_kation

1 2

--Link1--
%chk=JID_10180.chk
%mem=8GB
%nprocshared=4
# B3LYP/6-311++G(d,p) empiricaldispersion=gd3bj scf=xqc pop=npa geom=check

CID_115981537_JID_10180_Energie_anion

-1 2
