%chk=JID_8631.chk
%mem=8GB
%nprocshared=4
# opt freq B3LYP/6-31G(d) empiricaldispersion=gd3bj scf=xqc

CID_83256254_JID_8631_neutraal

0 1
C          1.05975        0.03460        0.07233
O          0.98473       -1.13746        0.87743
C          1.55299       -2.27498        0.21211
C          0.45335       -3.28042       -0.11789
O         -0.40473       -2.74633       -1.13393
C         -1.56153       -3.56747       -1.33682
C         -2.83849       -2.77028       -1.03956
N         -2.87422       -2.24050        0.31541
C         -2.54327       -0.87808        0.62089
N         -1.95655       -0.94499        1.96912
C         -2.53425       -2.15398        2.59479
C         -2.89570       -3.04358        1.43387
O         -3.10709       -4.24430        1.47332
C         -3.78101       -0.00535        0.59076
C         -4.49798        0.55172        1.63938
C         -5.60922        1.33016        1.20555
C         -5.70792        1.36300       -0.16558
S         -4.45566        0.48052       -0.91957
H          0.57291        0.85248        0.61022
H          0.54334       -0.11463       -0.88056
H          2.10507        0.30696       -0.10271
H          2.09942       -1.98097       -0.69190
H          2.26215       -2.73140        0.91012
H          0.89729       -4.21126       -0.48664
H         -0.12994       -3.48675        0.78574
H         -1.56598       -3.87014       -2.38933
H         -1.52087       -4.48334       -0.73525
H         -2.92743       -1.93965       -1.74571
H         -3.70548       -3.42760       -1.16625
H         -1.79803       -0.50013       -0.08688
H         -0.95943       -1.13120        1.81065
H         -1.79504       -2.64184        3.23528
H         -3.43321       -1.91629        3.16987
H         -4.23146        0.40965        2.68046
H         -6.29651        1.84217        1.86797
H         -6.45036        1.87356       -0.76370

--Link1--
%chk=JID_8631.chk
%mem=8GB
%nprocshared=4
# B3LYP/6-311++G(d,p) empiricaldispersion=gd3bj scf=xqc pop=npa geom=check

CID_83256254_JID_8631_Energie_neutraal

0 1

--Link1--
%chk=JID_8631.chk
%mem=8GB
%nprocshared=4
# B3LYP/6-311++G(d,p) empiricaldispersion=gd3bj scf=xqc pop=npa geom=check

CID_83256254_JID_8631_Energie_kation

1 2

--Link1--
%chk=JID_8631.chk
%mem=8GB
%nprocshared=4
# B3LYP/6-311++G(d,p) empiricaldispersion=gd3bj scf=xqc pop=npa geom=check

CID_83256254_JID_8631_Energie_anion

-1 2
