%chk=JID_5047.chk
%mem=8GB
%nprocshared=4
# opt freq B3LYP/6-31G(d) empiricaldispersion=gd3bj scf=xqc

CID_139982677_JID_5047_neutraal

0 1
C          1.02827        0.08400        0.04631
N          0.99696        0.26151        1.48776
C         -0.05347        1.00544        2.07283
C         -0.14441        0.99712        3.49917
C         -1.21037        1.65654        4.12056
C         -2.10181        2.41960        3.35494
C         -1.95295        2.51951        1.96889
C         -0.92565        1.81729        1.33589
N         -3.20179        3.13002        4.01837
O         -3.24460        3.10249        5.25682
O         -4.02435        3.71760        3.30103
N          0.79744        0.19948        4.20382
C          1.10567        0.55923        5.59620
C          2.03319       -0.49604        6.21245
O          3.20101       -0.68568        5.41576
H          1.18940        1.03639       -0.46877
H          0.10964       -0.38635       -0.31967
H          1.86523       -0.57177       -0.21409
H          1.04809       -0.63201        1.98173
H         -1.35160        1.58910        5.19372
H         -2.62850        3.12458        1.36783
H         -0.83866        1.90247        0.25709
H          1.65618        0.25662        3.64368
H          1.60413        1.53566        5.60754
H          0.20654        0.60889        6.21710
H          2.35012       -0.17911        7.21069
H          1.52250       -1.46054        6.30644
H          2.90331       -1.16676        4.62343

--Link1--
%chk=JID_5047.chk
%mem=8GB
%nprocshared=4
# B3LYP/6-311++G(d,p) empiricaldispersion=gd3bj scf=xqc pop=npa geom=check

CID_139982677_JID_5047_Energie_neutraal

0 1

--Link1--
%chk=JID_5047.chk
%mem=8GB
%nprocshared=4
# B3LYP/6-311++G(d,p) empiricaldispersion=gd3bj scf=xqc pop=npa geom=check

CID_139982677_JID_5047_Energie_kation

1 2

--Link1--
%chk=JID_5047.chk
%mem=8GB
%nprocshared=4
# B3LYP/6-311++G(d,p) empiricaldispersion=gd3bj scf=xqc pop=npa geom=check

CID_139982677_JID_5047_Energie_anion

-1 2
