%chk=JID_10706.chk
%mem=8GB
%nprocshared=4
# opt freq B3LYP/6-31G(d) empiricaldispersion=gd3bj scf=xqc

CID_147461223_JID_10706_neutraal

0 1
C          2.49200        0.00400       -0.01400
C          0.99664        0.11229        0.04113
C          0.19008       -0.92012       -0.45387
C         -1.20092       -0.83622       -0.36225
C         -1.79524        0.28110        0.22299
C         -0.99921        1.30052        0.74976
C          0.39167        1.21602        0.65533
O         -3.16683        0.27719        0.31826
C         -3.85827        1.41106        0.18625
N         -4.69618        1.79115        1.12264
C         -5.30958        2.97244        0.75420
C         -4.95116        3.46912       -0.50126
S         -3.80636        2.39824       -1.21645
C         -5.49221        4.65949       -1.01898
C         -6.41810        5.35360       -0.22166
C         -6.79358        4.88059        1.03932
C         -6.24374        3.69040        1.52965
N         -7.00192        6.60496       -0.72713
O         -6.65974        6.98436       -1.85574
O         -7.79974        7.20605        0.00570
H          2.86858       -0.44920        0.90813
H          2.80957       -0.60909       -0.86398
H          2.94894        0.99151       -0.13747
H          0.64057       -1.79987       -0.90826
H         -1.81767       -1.64555       -0.74378
H         -1.44355        2.15360        1.25508
H          1.00214        2.01269        1.07514
H         -5.19350        5.01662       -2.00105
H         -7.51086        5.41880        1.65697
H         -6.52768        3.31090        2.50763

--Link1--
%chk=JID_10706.chk
%mem=8GB
%nprocshared=4
# B3LYP/6-311++G(d,p) empiricaldispersion=gd3bj scf=xqc pop=npa geom=check

CID_147461223_JID_10706_Energie_neutraal

0 1

--Link1--
%chk=JID_10706.chk
%mem=8GB
%nprocshared=4
# B3LYP/6-311++G(d,p) empiricaldispersion=gd3bj scf=xqc pop=npa geom=check

CID_147461223_JID_10706_Energie_kation

1 2

--Link1--
%chk=JID_10706.chk
%mem=8GB
%nprocshared=4
# B3LYP/6-311++G(d,p) empiricaldispersion=gd3bj scf=xqc pop=npa geom=check

CID_147461223_JID_10706_Energie_anion

-1 2
