%chk=JID_5894.chk
%mem=8GB
%nprocshared=4
# opt freq B3LYP/6-31G(d) empiricaldispersion=gd3bj scf=xqc

CID_17945778_JID_5894_neutraal

0 1
C          1.08145        0.05421        0.02066
C          1.77380       -1.29879        0.09955
C          2.53008       -1.52693        1.41142
C          1.68857       -1.42890        2.68587
C          0.58820       -2.49185        2.77418
N         -0.24096       -2.30074        3.96015
C         -1.57554       -2.57178        3.78183
O         -1.99857       -3.54566        3.16194
N         -2.45982       -1.63117        4.21647
C         -2.14548       -0.33899        4.79898
C         -3.32770        0.60835        4.67525
N         -4.30845        1.39425        4.57260
C          0.32310       -2.72657        5.14774
O          1.43898       -3.19803        5.31054
O         -0.48327       -2.60716        6.22396
H          0.25896        0.12673        0.73831
H          0.66096        0.20199       -0.97930
H          1.78668        0.86837        0.21491
H          1.03914       -2.09495       -0.06233
H          2.49134       -1.37222       -0.72679
H          3.00775       -2.51367        1.37371
H          3.34309       -0.79312        1.47921
H          2.36275       -1.52426        3.54525
H          1.24557       -0.42950        2.76979
H         -0.05356       -2.43110        1.88733
H          1.02696       -3.49788        2.79142
H         -3.43026       -1.88502        4.06917
H         -1.91231       -0.48667        5.85706
H         -1.27148        0.08991        4.29916
H          0.05278       -3.00457        6.94315

--Link1--
%chk=JID_5894.chk
%mem=8GB
%nprocshared=4
# B3LYP/6-311++G(d,p) empiricaldispersion=gd3bj scf=xqc pop=npa geom=check

CID_17945778_JID_5894_Energie_neutraal

0 1

--Link1--
%chk=JID_5894.chk
%mem=8GB
%nprocshared=4
# B3LYP/6-311++G(d,p) empiricaldispersion=gd3bj scf=xqc pop=npa geom=check

CID_17945778_JID_5894_Energie_kation

1 2

--Link1--
%chk=JID_5894.chk
%mem=8GB
%nprocshared=4
# B3LYP/6-311++G(d,p) empiricaldispersion=gd3bj scf=xqc pop=npa geom=check

CID_17945778_JID_5894_Energie_anion

-1 2
