%chk=JID_4137.chk
%mem=8GB
%nprocshared=4
# opt freq B3LYP/6-31G(d) empiricaldispersion=gd3bj scf=xqc

CID_112369919_JID_4137_neutraal

0 1
C          0.94077        0.05953       -0.05430
C          0.53179       -0.88558       -1.18393
C          1.35903       -2.17261       -1.10323
C         -0.97008       -1.23312       -1.14149
C         -1.94813       -0.04310       -1.26233
C         -1.75007        0.72055       -2.57534
C         -3.41239       -0.51678       -1.16751
C         -3.78575       -0.90599        0.24958
O         -3.99771       -0.05586        1.11294
N         -3.85244       -2.22182        0.59863
C         -3.84557       -3.37932       -0.27725
C         -3.56955       -4.70203        0.45428
C         -4.69472       -5.10764        1.39833
O         -3.37865       -5.74363       -0.50556
H          0.66657       -0.34854        0.92440
H          0.46477        1.03871       -0.16201
H          2.02364        0.22499       -0.05931
H          0.76925       -0.40734       -2.14097
H          1.18132       -2.70200       -0.16084
H          1.10615       -2.84979       -1.92597
H          2.42964       -1.95201       -1.17116
H         -1.18417       -1.94558       -1.94935
H         -1.16831       -1.76380       -0.20202
H         -1.76342        0.65337       -0.43554
H         -1.86163        0.05761       -3.43991
H         -2.48445        1.52772       -2.67130
H         -0.76000        1.18342       -2.62346
H         -4.09187        0.30129       -1.44116
H         -3.61856       -1.31909       -1.88089
H         -4.16903       -2.33586        1.55488
H         -4.81214       -3.41504       -0.79347
H         -3.08820       -3.24106       -1.05446
H         -2.63710       -4.61627        1.02342
H         -5.64264       -5.20853        0.85858
H         -4.48164       -6.08548        1.84395
H         -4.82859       -4.38333        2.20655
H         -4.23633       -5.93800       -0.92168

--Link1--
%chk=JID_4137.chk
%mem=8GB
%nprocshared=4
# B3LYP/6-311++G(d,p) empiricaldispersion=gd3bj scf=xqc pop=npa geom=check

CID_112369919_JID_4137_Energie_neutraal

0 1

--Link1--
%chk=JID_4137.chk
%mem=8GB
%nprocshared=4
# B3LYP/6-311++G(d,p) empiricaldispersion=gd3bj scf=xqc pop=npa geom=check

CID_112369919_JID_4137_Energie_kation

1 2

--Link1--
%chk=JID_4137.chk
%mem=8GB
%nprocshared=4
# B3LYP/6-311++G(d,p) empiricaldispersion=gd3bj scf=xqc pop=npa geom=check

CID_112369919_JID_4137_Energie_anion

-1 2
