%chk=JID_9635.chk
%mem=8GB
%nprocshared=4
# opt freq B3LYP/6-31G(d) empiricaldispersion=gd3bj scf=xqc

CID_103081971_JID_9635_neutraal

0 1
C          0.97308       -0.09072       -0.03231
O          0.58025       -0.57822        1.24159
C          0.95451       -1.90726        1.57082
C          0.46444       -2.99834        0.62371
C          1.33915       -4.18568        1.00480
C          2.72505       -3.57025        1.22748
C          2.46062       -2.13805        1.72622
N          3.46398       -3.49024       -0.03705
C          4.42775       -4.46202       -0.31896
N          4.66226       -5.43181        0.59391
C          5.65847       -6.32099        0.37979
C          6.47179       -6.30293       -0.73528
C          6.24706       -5.31375       -1.68973
C          5.21986       -4.39374       -1.46614
N          4.97020       -3.34417       -2.41904
O          3.85038       -3.32432       -2.95050
O          5.88994       -2.54746       -2.64001
C          7.06248       -5.29349       -2.86685
N          7.72465       -5.31640       -3.81797
H          0.69426        0.96569       -0.08673
H          0.44066       -0.61292       -0.83103
H          2.05165       -0.16257       -0.18618
H          0.49732       -2.09775        2.55123
H         -0.60183       -3.20520        0.75994
H          0.61177       -2.73836       -0.42858
H          1.32442       -4.96873        0.24026
H          0.97417       -4.62192        1.94300
H          3.28028       -4.11564        1.99826
H          3.07633       -1.39370        1.21317
H          2.72220       -2.06012        2.78898
H          2.86256       -3.31101       -0.84294
H          5.78732       -7.06735        1.16018
H          7.25830       -7.04352       -0.85087

--Link1--
%chk=JID_9635.chk
%mem=8GB
%nprocshared=4
# B3LYP/6-311++G(d,p) empiricaldispersion=gd3bj scf=xqc pop=npa geom=check

CID_103081971_JID_9635_Energie_neutraal

0 1

--Link1--
%chk=JID_9635.chk
%mem=8GB
%nprocshared=4
# B3LYP/6-311++G(d,p) empiricaldispersion=gd3bj scf=xqc pop=npa geom=check

CID_103081971_JID_9635_Energie_kation

1 2

--Link1--
%chk=JID_9635.chk
%mem=8GB
%nprocshared=4
# B3LYP/6-311++G(d,p) empiricaldispersion=gd3bj scf=xqc pop=npa geom=check

CID_103081971_JID_9635_Energie_anion

-1 2
