%chk=JID_8930.chk
%mem=8GB
%nprocshared=4
# opt freq B3LYP/6-31G(d) empiricaldispersion=gd3bj scf=xqc

CID_149325983_JID_8930_neutraal

0 1
C          0.95110       -0.02299        0.08414
C          0.11145       -0.91976        1.00697
C          0.43987       -0.57754        2.46386
C         -1.37021       -0.69193        0.68565
O          0.53187       -2.27169        0.69172
C         -0.05706       -3.33378        1.28606
O         -0.97916       -3.31280        2.08598
C          0.53337       -4.60971        0.81799
C          1.69810       -4.71873        0.15735
C          2.36793       -5.97963       -0.35844
C          1.61360       -7.30473       -0.15237
C          1.68974       -7.86047        1.27191
C          3.09859       -7.88850        1.89246
C          3.84156       -6.56592        1.63939
C          3.80058       -6.09172        0.18925
C          3.93650       -9.13948        1.48970
N          4.18165       -9.36415        0.06923
O          2.92588       -7.97771        3.32373
H          0.73247        1.03880        0.23887
H          0.76511       -0.26552       -0.96870
H          2.02224       -0.18403        0.25341
H          0.25712        0.48113        2.67669
H         -0.16129       -1.16537        3.16444
H          1.48892       -0.80176        2.68840
H         -1.61023       -1.05233       -0.32080
H         -2.02749       -1.22638        1.37788
H         -1.63162        0.37011        0.74767
H         -0.06511       -5.47157        1.08452
H          2.25022       -3.80540       -0.06886
H          2.44830       -5.82953       -1.44451
H          2.02526       -8.04433       -0.84783
H          0.56180       -7.19770       -0.44526
H          1.25451       -8.86815        1.29104
H          1.03440       -7.26773        1.92204
H          3.41264       -5.78429        2.28161
H          4.88516       -6.65460        1.96754
H          4.37482       -6.77890       -0.44172
H          4.31592       -5.12543        0.11475
H          4.90643       -9.08231        2.00058
H          3.45731      -10.03784        1.90043
H          4.86974      -10.11050       -0.03457
H          3.33335       -9.71434       -0.37370
H          2.33917       -8.73057        3.51028

--Link1--
%chk=JID_8930.chk
%mem=8GB
%nprocshared=4
# B3LYP/6-311++G(d,p) empiricaldispersion=gd3bj scf=xqc pop=npa geom=check

CID_149325983_JID_8930_Energie_neutraal

0 1

--Link1--
%chk=JID_8930.chk
%mem=8GB
%nprocshared=4
# B3LYP/6-311++G(d,p) empiricaldispersion=gd3bj scf=xqc pop=npa geom=check

CID_149325983_JID_8930_Energie_kation

1 2

--Link1--
%chk=JID_8930.chk
%mem=8GB
%nprocshared=4
# B3LYP/6-311++G(d,p) empiricaldispersion=gd3bj scf=xqc pop=npa geom=check

CID_149325983_JID_8930_Energie_anion

-1 2
