%chk=JID_8289.chk
%mem=8GB
%nprocshared=4
# opt freq B3LYP/6-31G(d) empiricaldispersion=gd3bj scf=xqc

CID_115239494_JID_8289_neutraal

0 1
C          2.62500       -0.32100        0.00300
C          1.25439       -0.11715       -0.55469
C          0.32820       -1.12180       -0.80162
S         -1.12428       -0.50577       -1.47522
C         -0.54235        1.09493       -1.43640
C          0.73326        1.16574       -0.92725
C          0.46558       -2.60689       -0.57386
C          0.06019       -3.03326        0.84817
N         -1.38999       -3.00507        1.03379
C         -1.84482       -3.49181        2.32931
C         -1.35687       -2.78392        3.60261
C         -1.96047       -1.39246        3.88025
C         -1.35555       -0.27198        2.98485
N         -1.84701        1.07563        3.34011
C         -1.65321        1.33912        4.77366
C         -2.27099        0.22781        5.64445
N         -1.73443       -1.10500        5.32347
C         -1.19987        2.09907        2.52425
H          3.29726       -0.69348       -0.77644
H          3.03598        0.61690        0.39065
H          2.61148       -1.04213        0.82613
H         -1.16002        1.90787       -1.79224
H          1.27572        2.09883       -0.83187
H         -0.11045       -3.17118       -1.31864
H          1.51430       -2.88814       -0.73490
H          0.41892       -4.05689        1.00870
H          0.55954       -2.38598        1.57684
H         -1.76972       -2.08769        0.80844
H         -2.94152       -3.48481        2.32322
H         -1.56566       -4.55079        2.40483
H         -1.63873       -3.44751        4.43361
H         -0.26147       -2.73976        3.62957
H         -3.04435       -1.44294        3.71147
H         -1.62964       -0.45368        1.94449
H         -0.25955       -0.30516        3.05173
H         -0.58401        1.42729        5.00899
H         -2.12758        2.29099        5.04077
H         -3.36237        0.22077        5.53202
H         -2.06612        0.44116        6.69943
H         -0.72848       -1.08885        5.48987
H         -1.59147        3.09221        2.77056
H         -0.11266        2.11399        2.66151
H         -1.41274        1.93334        1.46332

--Link1--
%chk=JID_8289.chk
%mem=8GB
%nprocshared=4
# B3LYP/6-311++G(d,p) empiricaldispersion=gd3bj scf=xqc pop=npa geom=check

CID_115239494_JID_8289_Energie_neutraal

0 1

--Link1--
%chk=JID_8289.chk
%mem=8GB
%nprocshared=4
# B3LYP/6-311++G(d,p) empiricaldispersion=gd3bj scf=xqc pop=npa geom=check

CID_115239494_JID_8289_Energie_kation

1 2

--Link1--
%chk=JID_8289.chk
%mem=8GB
%nprocshared=4
# B3LYP/6-311++G(d,p) empiricaldispersion=gd3bj scf=xqc pop=npa geom=check

CID_115239494_JID_8289_Energie_anion

-1 2
