%chk=JID_4997.chk
%mem=8GB
%nprocshared=4
# opt freq B3LYP/6-31G(d) empiricaldispersion=gd3bj scf=xqc

CID_150687725_JID_4997_neutraal

0 1
C         -1.21700       -0.05100        1.48200
C         -0.93972       -0.03856       -0.03662
C          0.01317        1.14068       -0.37666
C          1.43512        0.95070        0.14149
C          2.03407       -0.35304       -0.36137
C          1.15020       -1.54861       -0.02733
C         -0.29683       -1.38000       -0.54438
C         -1.08296       -2.66617       -0.20596
C         -2.29522       -2.90290       -1.09011
O         -2.25794       -2.71258       -2.30200
N         -3.37475       -3.38590       -0.39659
N         -4.39131       -3.45821       -1.10509
N         -5.34895       -3.53433       -1.71943
C         -2.27942        0.24729       -0.74779
H         -0.33112       -0.31240        2.06719
H         -1.55388        0.93477        1.82419
H         -2.00789       -0.76183        1.74297
H          0.05685        1.26811       -1.46704
H         -0.38700        2.08066        0.02459
H          1.44526        0.96777        1.23721
H          2.05844        1.78965       -0.18910
H          3.02833       -0.49567        0.07697
H          2.17224       -0.29600       -1.44823
H          1.15044       -1.71413        1.05665
H          1.59968       -2.44374       -0.47545
H         -0.22476       -1.30745       -1.63941
H         -0.44505       -3.54695       -0.35768
H         -1.37652       -2.68319        0.84813
H         -2.64353        1.25359       -0.50847
H         -2.17265        0.18747       -1.83637
H         -3.06356       -0.45042       -0.44084

--Link1--
%chk=JID_4997.chk
%mem=8GB
%nprocshared=4
# B3LYP/6-311++G(d,p) empiricaldispersion=gd3bj scf=xqc pop=npa geom=check

CID_150687725_JID_4997_Energie_neutraal

0 1

--Link1--
%chk=JID_4997.chk
%mem=8GB
%nprocshared=4
# B3LYP/6-311++G(d,p) empiricaldispersion=gd3bj scf=xqc pop=npa geom=check

CID_150687725_JID_4997_Energie_kation

1 2

--Link1--
%chk=JID_4997.chk
%mem=8GB
%nprocshared=4
# B3LYP/6-311++G(d,p) empiricaldispersion=gd3bj scf=xqc pop=npa geom=check

CID_150687725_JID_4997_Energie_anion

-1 2
