%chk=JID_9886.chk
%mem=8GB
%nprocshared=4
# opt freq B3LYP/6-31G(d) empiricaldispersion=gd3bj scf=xqc

CID_133957308_JID_9886_neutraal

0 1
C          0.95743        0.02586        0.08671
C          1.09744        1.40093        0.73175
C          0.70641        2.53930       -0.18160
C          1.36425        2.64942       -1.42462
C          1.13850        3.72976       -2.27912
C          0.26819        4.74099       -1.89691
C         -0.38238        4.65749       -0.66845
C         -0.19750        3.55180        0.17390
O         -0.85200        3.64342        1.36949
C         -1.80669        2.63905        1.66592
C         -2.42942        1.67610        0.63149
O         -2.18701        0.46954        0.72939
N         -3.28619        2.18956       -0.33778
C         -3.66583        3.59099       -0.43415
C         -3.82322        1.30365       -1.38689
C         -2.71597        0.73935       -2.27869
C         -4.78198        0.30025       -0.78472
C         -5.43970       -0.76894       -1.62721
C         -4.44900       -1.15777       -0.56656
H         -0.02040       -0.11312       -0.37932
H          1.09482       -0.75686        0.83985
H          1.71617       -0.13248       -0.68663
H          0.51744        1.41254        1.65543
H          2.13992        1.55076        1.04058
H          2.08999        1.89741       -1.72827
H          1.66579        3.79096       -3.22745
H          0.11061        5.60056       -2.54193
H         -1.03710        5.46714       -0.35648
H         -1.37791        2.01304        2.45895
H         -2.64477        3.13765        2.16974
H         -3.28619        3.99140       -1.37877
H         -4.75826        3.65649       -0.42877
H         -3.28630        4.19744        0.38695
H         -4.44032        1.93508       -2.04074
H         -2.05341        0.05143       -1.74732
H         -3.13362        0.19714       -3.13267
H         -2.09279        1.55000       -2.67299
H         -5.42031        0.77362       -0.04358
H         -6.48559       -0.98784       -1.44197
H         -5.14440       -0.89198       -2.66187
H         -3.48109       -1.53433       -0.87451
H         -4.81775       -1.62181        0.34174

--Link1--
%chk=JID_9886.chk
%mem=8GB
%nprocshared=4
# B3LYP/6-311++G(d,p) empiricaldispersion=gd3bj scf=xqc pop=npa geom=check

CID_133957308_JID_9886_Energie_neutraal

0 1

--Link1--
%chk=JID_9886.chk
%mem=8GB
%nprocshared=4
# B3LYP/6-311++G(d,p) empiricaldispersion=gd3bj scf=xqc pop=npa geom=check

CID_133957308_JID_9886_Energie_kation

1 2

--Link1--
%chk=JID_9886.chk
%mem=8GB
%nprocshared=4
# B3LYP/6-311++G(d,p) empiricaldispersion=gd3bj scf=xqc pop=npa geom=check

CID_133957308_JID_9886_Energie_anion

-1 2
