%chk=JID_8049.chk
%mem=8GB
%nprocshared=4
# opt freq B3LYP/6-31G(d) empiricaldispersion=gd3bj scf=xqc

CID_71518007_JID_8049_neutraal

0 1
C          2.49200        0.00400       -0.01400
C          0.99449        0.06717       -0.06522
C          0.22351       -1.08209        0.14480
C         -1.17008       -1.02792        0.05326
C         -1.81517        0.17597       -0.25730
C         -1.04017        1.32020       -0.48343
C          0.35173        1.26569       -0.39139
C         -3.31591        0.23424       -0.39155
O         -3.74000       -0.49773       -1.54893
C         -3.68650        0.18480       -2.72801
O         -3.33208        1.35257       -2.84004
C         -4.09432       -0.69802       -3.89042
C         -3.27303       -2.00439       -3.95768
C         -4.24692       -3.02697       -4.51751
N         -5.52165       -2.55627       -4.07525
C         -5.50572       -1.21997       -3.72794
O         -6.49341       -0.58395       -3.40179
C         -4.00154        0.06574       -5.21695
H          2.82664       -0.76693        0.68806
H          2.89109       -0.22493       -1.00690
H          2.91171        0.95656        0.32617
H          0.70432       -2.02943        0.37797
H         -1.75088       -1.93313        0.21607
H         -1.51730        2.26059       -0.75452
H          0.93061        2.16613       -0.58434
H         -3.77347       -0.24127        0.48385
H         -3.69385        1.26394       -0.41071
H         -2.37158       -1.91916       -4.57353
H         -2.94596       -2.32869       -2.96218
H         -4.06889       -4.03626       -4.13816
H         -4.24564       -3.04051       -5.61171
H         -6.39583       -3.06685       -4.12206
H         -4.62816        0.96522       -5.19866
H         -2.97189        0.38499       -5.41517
H         -4.33561       -0.54178       -6.06538

--Link1--
%chk=JID_8049.chk
%mem=8GB
%nprocshared=4
# B3LYP/6-311++G(d,p) empiricaldispersion=gd3bj scf=xqc pop=npa geom=check

CID_71518007_JID_8049_Energie_neutraal

0 1

--Link1--
%chk=JID_8049.chk
%mem=8GB
%nprocshared=4
# B3LYP/6-311++G(d,p) empiricaldispersion=gd3bj scf=xqc pop=npa geom=check

CID_71518007_JID_8049_Energie_kation

1 2

--Link1--
%chk=JID_8049.chk
%mem=8GB
%nprocshared=4
# B3LYP/6-311++G(d,p) empiricaldispersion=gd3bj scf=xqc pop=npa geom=check

CID_71518007_JID_8049_Energie_anion

-1 2
