%chk=JID_2486.chk
%mem=8GB
%nprocshared=4
# opt freq B3LYP/6-31G(d) empiricaldispersion=gd3bj scf=xqc

CID_65720688_JID_2486_neutraal

0 1
C         -2.55700       -0.42200       -0.01100
C         -1.10404       -0.13781        0.12572
C         -0.08062       -1.06861        0.23427
S          1.42688       -0.25523        0.38054
C          0.61031        1.24473        0.27882
N         -0.69615        1.18658        0.15498
C         -0.15125       -2.56346        0.24264
N          0.10448       -3.08576       -1.09894
C          0.01189       -4.54208       -1.17126
C         -1.41215       -5.11114       -1.16717
C         -2.27957       -4.67257       -2.34221
O         -1.72638       -5.09793       -3.57848
H         -2.95256       -0.83419        0.92240
H         -3.11461        0.49034       -0.24495
H         -2.73626       -1.14246       -0.81527
H          1.14509        2.18455        0.31808
H          0.58248       -2.96563        0.95201
H         -1.14186       -2.86929        0.59744
H         -0.51544       -2.63564       -1.76767
H          0.52043       -4.86168       -2.08807
H          0.58425       -4.99309       -0.35095
H         -1.32560       -6.20491       -1.19228
H         -1.91953       -4.85683       -0.23009
H         -3.27011       -5.13008       -2.25266
H         -2.42265       -3.58805       -2.36935
H         -0.94525       -4.54855       -3.76450

--Link1--
%chk=JID_2486.chk
%mem=8GB
%nprocshared=4
# B3LYP/6-311++G(d,p) empiricaldispersion=gd3bj scf=xqc pop=npa geom=check

CID_65720688_JID_2486_Energie_neutraal

0 1

--Link1--
%chk=JID_2486.chk
%mem=8GB
%nprocshared=4
# B3LYP/6-311++G(d,p) empiricaldispersion=gd3bj scf=xqc pop=npa geom=check

CID_65720688_JID_2486_Energie_kation

1 2

--Link1--
%chk=JID_2486.chk
%mem=8GB
%nprocshared=4
# B3LYP/6-311++G(d,p) empiricaldispersion=gd3bj scf=xqc pop=npa geom=check

CID_65720688_JID_2486_Energie_anion

-1 2
