%chk=JID_9677.chk
%mem=8GB
%nprocshared=4
# opt freq B3LYP/6-31G(d) empiricaldispersion=gd3bj scf=xqc

CID_105808251_JID_9677_neutraal

0 1
C         -2.94600        0.04200        0.02500
C         -1.65210        0.03409        0.78364
C         -0.75957       -1.03459        0.65567
C          0.43291       -1.06048        1.39716
C          0.74902       -0.02769        2.29900
C         -0.18170        1.00706        2.45640
C         -1.35755        1.04932        1.69794
N          1.81581       -0.10985        3.20871
C          1.31005       -2.23587        1.20429
O          0.86843       -3.36758        1.38159
N          2.61659       -2.06648        0.80373
C          3.21813       -0.91603        0.12720
C          4.61608       -0.67550        0.70114
C          3.25314       -1.07619       -1.41682
C          1.84602       -1.12338       -2.03477
C          1.92846       -1.27070       -3.54924
O          2.67242       -2.43524       -3.90128
C          4.01761       -2.37980       -3.43333
C          4.06259       -2.28749       -1.91119
H         -2.83442       -0.46147       -0.94108
H         -3.72238       -0.46847        0.60305
H         -3.27207        1.06730       -0.17900
H         -0.98884       -1.86322       -0.01238
H         -0.01036        1.78542        3.19630
H         -2.05719        1.86834        1.85234
H          2.56044       -0.74184        2.92469
H          2.15261        0.78086        3.55695
H          3.07787       -2.96233        0.68910
H          2.62056       -0.02497        0.34125
H          5.25309       -1.56132        0.60961
H          5.11021        0.16085        0.19629
H          4.55838       -0.43420        1.76797
H          3.74387       -0.17578       -1.81553
H          1.29836       -1.98525       -1.63689
H          1.28351       -0.21867       -1.78001
H          0.92269       -1.37826       -3.96768
H          2.38726       -0.38930       -4.01254
H          4.53111       -1.53001       -3.89846
H          4.52411       -3.29199       -3.76469
H          5.10602       -2.22395       -1.58696
H          3.63814       -3.20818       -1.49368

--Link1--
%chk=JID_9677.chk
%mem=8GB
%nprocshared=4
# B3LYP/6-311++G(d,p) empiricaldispersion=gd3bj scf=xqc pop=npa geom=check

CID_105808251_JID_9677_Energie_neutraal

0 1

--Link1--
%chk=JID_9677.chk
%mem=8GB
%nprocshared=4
# B3LYP/6-311++G(d,p) empiricaldispersion=gd3bj scf=xqc pop=npa geom=check

CID_105808251_JID_9677_Energie_kation

1 2

--Link1--
%chk=JID_9677.chk
%mem=8GB
%nprocshared=4
# B3LYP/6-311++G(d,p) empiricaldispersion=gd3bj scf=xqc pop=npa geom=check

CID_105808251_JID_9677_Energie_anion

-1 2
