%chk=JID_5418.chk
%mem=8GB
%nprocshared=4
# opt freq B3LYP/6-31G(d) empiricaldispersion=gd3bj scf=xqc

CID_81019022_JID_5418_neutraal

0 1
C          0.90038       -0.00365        0.00791
C          0.90744       -1.52086       -0.14274
C          1.44668       -2.26203        1.10867
C          0.52899       -3.45492        1.45401
C          0.62214       -4.58391        0.43526
C          2.05586       -5.06754        0.29386
C          3.02238       -3.92854       -0.02438
C          2.92790       -2.76094        0.98226
C          3.95713       -1.61088        0.71090
C          3.99901       -0.64412        1.91016
C          5.41009       -2.09803        0.45399
C          5.78033       -2.34242       -1.01926
N          5.80739       -1.09429       -1.78356
C          6.24177       -1.28661       -3.16750
C          5.19216       -1.95797       -4.04362
H          0.31721        0.29960        0.88329
H          0.44295        0.45610       -0.87438
H          1.90769        0.40566        0.10551
H         -0.13013       -1.81861       -0.33850
H          1.47409       -1.78689       -1.04064
H          1.37772       -1.58521        1.96862
H          0.80566       -3.84221        2.44337
H         -0.51182       -3.11937        1.53744
H          0.24686       -4.24935       -0.53880
H         -0.01646       -5.41694        0.75043
H          2.11310       -5.82830       -0.49308
H          2.36805       -5.55448        1.22630
H          2.83697       -3.56982       -1.04292
H          4.02864       -4.35924       -0.01254
H          3.19437       -3.18713        1.96178
H          3.62254       -1.04021       -0.15881
H          4.33165       -1.15888        2.81821
H          4.69250        0.18204        1.71698
H          3.02591       -0.19296        2.11612
H          6.12590       -1.36156        0.84471
H          5.59770       -3.01324        1.02943
H          6.77837       -2.79661       -1.03906
H          5.09064       -3.05501       -1.47410
H          4.88819       -0.65670       -1.77664
H          6.45450       -0.29650       -3.58676
H          7.18422       -1.84472       -3.20587
H          4.24072       -1.41695       -4.00805
H          5.52967       -1.97346       -5.08515
H          5.01130       -2.99356       -3.74019

--Link1--
%chk=JID_5418.chk
%mem=8GB
%nprocshared=4
# B3LYP/6-311++G(d,p) empiricaldispersion=gd3bj scf=xqc pop=npa geom=check

CID_81019022_JID_5418_Energie_neutraal

0 1

--Link1--
%chk=JID_5418.chk
%mem=8GB
%nprocshared=4
# B3LYP/6-311++G(d,p) empiricaldispersion=gd3bj scf=xqc pop=npa geom=check

CID_81019022_JID_5418_Energie_kation

1 2

--Link1--
%chk=JID_5418.chk
%mem=8GB
%nprocshared=4
# B3LYP/6-311++G(d,p) empiricaldispersion=gd3bj scf=xqc pop=npa geom=check

CID_81019022_JID_5418_Energie_anion

-1 2
