%chk=JID_7405.chk
%mem=8GB
%nprocshared=4
# opt freq B3LYP/6-31G(d) empiricaldispersion=gd3bj scf=xqc

CID_58432861_JID_7405_neutraal

0 1
C          1.03142       -0.02932        0.09029
C          0.48913       -0.77081       -1.14686
C          0.97897       -2.23331       -1.06572
C         -1.04906       -0.76896       -1.11469
C          0.97207       -0.14265       -2.45254
N          1.32666       -0.84163       -3.51409
C          1.73409       -0.00542       -4.53894
C          1.64109        1.34203       -4.25954
S          1.03907        1.56959       -2.67392
C          2.18629       -0.54408       -5.81341
C          1.57188       -1.69203       -6.33273
C          1.98336       -2.22922       -7.55674
C          3.02567       -1.62948       -8.26916
C          3.65350       -0.49201       -7.75128
C          3.23512        0.04852       -6.53016
C          3.45250       -2.17909       -9.52269
N          3.79921       -2.61916      -10.53910
H          0.75409       -0.55046        1.01422
H          0.63224        0.98805        0.16886
H          2.12521        0.04155        0.06455
H          0.65709       -2.70920       -0.13219
H          0.58691       -2.83715       -1.89273
H          2.07347       -2.28787       -1.10753
H         -1.45168        0.25011       -1.13846
H         -1.46556       -1.30538       -1.97558
H         -1.42628       -1.25227       -0.20615
H          1.86984        2.18680       -4.89265
H          0.76296       -2.17121       -5.78272
H          1.48592       -3.11696       -7.94287
H          4.47484       -0.02188       -8.28936
H          3.75166        0.92233       -6.13925

--Link1--
%chk=JID_7405.chk
%mem=8GB
%nprocshared=4
# B3LYP/6-311++G(d,p) empiricaldispersion=gd3bj scf=xqc pop=npa geom=check

CID_58432861_JID_7405_Energie_neutraal

0 1

--Link1--
%chk=JID_7405.chk
%mem=8GB
%nprocshared=4
# B3LYP/6-311++G(d,p) empiricaldispersion=gd3bj scf=xqc pop=npa geom=check

CID_58432861_JID_7405_Energie_kation

1 2

--Link1--
%chk=JID_7405.chk
%mem=8GB
%nprocshared=4
# B3LYP/6-311++G(d,p) empiricaldispersion=gd3bj scf=xqc pop=npa geom=check

CID_58432861_JID_7405_Energie_anion

-1 2
