%chk=JID_6429.chk
%mem=8GB
%nprocshared=4
# opt freq B3LYP/6-31G(d) empiricaldispersion=gd3bj scf=xqc

CID_136299162_JID_6429_neutraal

0 1
C          1.07582        0.01560        0.06330
C          0.82443       -0.44589       -1.36659
C          1.02590       -1.96288       -1.58714
C          0.06118       -2.76384       -0.69088
C          0.84642       -2.36770       -3.08397
C          1.67017       -1.56202       -4.12531
S          3.43645       -1.99279       -4.30337
C          4.11271       -1.21601       -2.91299
N          4.50645       -1.89987       -1.89400
C          5.03196       -1.19343       -0.83672
C          5.15456        0.14200       -0.82592
C          4.71090        0.89051       -2.01162
O          4.78902        2.11135       -2.06651
N          4.20558        0.13324       -3.02112
C          5.46173       -2.02465        0.33810
N          1.07827       -3.81408       -3.24902
H          0.30446       -0.34918        0.74732
H          1.06137        1.10951        0.11062
H          2.05167       -0.32522        0.42227
H         -0.19042       -0.15646       -1.66504
H          1.51252        0.12083       -1.99839
H          2.03820       -2.22566       -1.26646
H         -0.98184       -2.51817       -0.91727
H          0.19085       -3.84317       -0.81847
H          0.23783       -2.55830        0.36918
H         -0.20918       -2.19110       -3.33149
H          1.23681       -1.77163       -5.11190
H          1.55966       -0.48280       -3.99479
H          5.56168        0.70695        0.00101
H          3.91273        0.60038       -3.86329
H          5.86493       -1.41313        1.15212
H          4.61094       -2.58977        0.73327
H          6.23851       -2.73481        0.03573
H          1.00416       -4.06768       -4.23411
H          2.05003       -4.01656       -2.99729

--Link1--
%chk=JID_6429.chk
%mem=8GB
%nprocshared=4
# B3LYP/6-311++G(d,p) empiricaldispersion=gd3bj scf=xqc pop=npa geom=check

CID_136299162_JID_6429_Energie_neutraal

0 1

--Link1--
%chk=JID_6429.chk
%mem=8GB
%nprocshared=4
# B3LYP/6-311++G(d,p) empiricaldispersion=gd3bj scf=xqc pop=npa geom=check

CID_136299162_JID_6429_Energie_kation

1 2

--Link1--
%chk=JID_6429.chk
%mem=8GB
%nprocshared=4
# B3LYP/6-311++G(d,p) empiricaldispersion=gd3bj scf=xqc pop=npa geom=check

CID_136299162_JID_6429_Energie_anion

-1 2
