%chk=JID_5063.chk
%mem=8GB
%nprocshared=4
# opt freq B3LYP/6-31G(d) empiricaldispersion=gd3bj scf=xqc

CID_144611094_JID_5063_neutraal

0 1
C          0.96675        0.09349        0.01245
C          0.29695        0.54775        1.30098
C          0.83648        1.88186        1.81100
C          0.40248        3.03181        0.92400
O         -0.77793        3.37036        0.84387
N          1.33482        3.68850        0.18153
C          2.76647        3.49502        0.18140
C          3.43152        4.38186       -0.83495
C          3.71353        3.90165       -2.12142
C          4.32343        4.72441       -3.07615
C          4.61261        6.05449       -2.74687
C          4.31063        6.56205       -1.47713
C          3.73272        5.71561       -0.52338
C          4.65294        7.98000       -1.12594
C          4.60339        4.20627       -4.45614
H          0.77922        0.79632       -0.80502
H          0.57696       -0.88370       -0.28996
H          2.04909       -0.00126        0.14541
H         -0.78545        0.61164        1.13915
H          0.46146       -0.21629        2.06978
H          0.42849        2.08345        2.80905
H          1.92140        1.83508        1.93084
H          0.95629        4.44564       -0.37595
H          2.98335        2.44133       -0.02517
H          3.14734        3.71187        1.18615
H          3.45751        2.87609       -2.38225
H          5.07283        6.70394       -3.48948
H          3.50522        6.10085        0.46930
H          5.66561        8.02939       -0.71428
H          4.59730        8.62566       -2.00870
H          3.95011        8.37996       -0.38748
H          4.83567        3.13636       -4.43122
H          3.73245        4.36514       -5.09931
H          5.46700        4.71494       -4.89733

--Link1--
%chk=JID_5063.chk
%mem=8GB
%nprocshared=4
# B3LYP/6-311++G(d,p) empiricaldispersion=gd3bj scf=xqc pop=npa geom=check

CID_144611094_JID_5063_Energie_neutraal

0 1

--Link1--
%chk=JID_5063.chk
%mem=8GB
%nprocshared=4
# B3LYP/6-311++G(d,p) empiricaldispersion=gd3bj scf=xqc pop=npa geom=check

CID_144611094_JID_5063_Energie_kation

1 2

--Link1--
%chk=JID_5063.chk
%mem=8GB
%nprocshared=4
# B3LYP/6-311++G(d,p) empiricaldispersion=gd3bj scf=xqc pop=npa geom=check

CID_144611094_JID_5063_Energie_anion

-1 2
