%chk=JID_10779.chk
%mem=8GB
%nprocshared=4
# opt freq B3LYP/6-31G(d) empiricaldispersion=gd3bj scf=xqc

CID_71832451_JID_10779_neutraal

0 1
C          0.94548       -0.07461       -0.03823
C          0.43230        0.81273       -1.10151
N         -0.34933        0.48203       -2.10901
N         -0.53640        1.60133       -2.88390
C          0.13522        2.59278       -2.33418
N          0.70205        2.16178       -1.15443
N          1.48542        2.87054       -0.29981
C          0.86306        3.57884        0.60117
C         -0.64549        3.61948        0.78546
C          1.69185        4.41279        1.52661
C          2.98924        3.98981        1.84466
C          3.80071        4.74308        2.70858
C          5.09859        4.32436        3.04304
C          5.89278        5.08270        3.90445
C          5.40080        6.26881        4.44096
C          4.11337        6.70004        4.11728
C          3.30120        5.94825        3.25324
C          2.00574        6.36997        2.91535
C          1.20628        5.61080        2.05603
C          0.29555        3.96158       -2.86629
H          0.62859       -1.10739       -0.21338
H          0.56642        0.23389        0.94096
H          2.03938       -0.05704       -0.01109
H         -1.07721        2.62155        0.67275
H         -0.91783        3.96366        1.78677
H         -1.08659        4.29200        0.04539
H          3.37070        3.06301        1.41992
H          5.50238        3.40099        2.63299
H          6.89577        4.74667        4.15496
H          6.01934        6.86031        5.11116
H          3.74876        7.63088        4.54611
H          1.61067        7.30096        3.31740
H          0.21831        5.98404        1.80178
H          1.35286        4.23864       -2.92119
H         -0.12256        4.03125       -3.87541
H         -0.22386        4.68899       -2.23611

--Link1--
%chk=JID_10779.chk
%mem=8GB
%nprocshared=4
# B3LYP/6-311++G(d,p) empiricaldispersion=gd3bj scf=xqc pop=npa geom=check

CID_71832451_JID_10779_Energie_neutraal

0 1

--Link1--
%chk=JID_10779.chk
%mem=8GB
%nprocshared=4
# B3LYP/6-311++G(d,p) empiricaldispersion=gd3bj scf=xqc pop=npa geom=check

CID_71832451_JID_10779_Energie_kation

1 2

--Link1--
%chk=JID_10779.chk
%mem=8GB
%nprocshared=4
# B3LYP/6-311++G(d,p) empiricaldispersion=gd3bj scf=xqc pop=npa geom=check

CID_71832451_JID_10779_Energie_anion

-1 2
