%chk=JID_8393.chk
%mem=8GB
%nprocshared=4
# opt freq B3LYP/6-31G(d) empiricaldispersion=gd3bj scf=xqc

CID_53510160_JID_8393_neutraal

0 1
C          1.03530       -0.02085       -0.09121
C          1.17069        1.49112       -0.23426
N          1.22825        1.92194       -1.64027
C          2.48496        1.55681       -2.31127
C          3.48154        2.62260       -1.89352
C          2.63804        3.89505       -1.78215
C          1.18640        3.39398       -1.74415
C          2.98002        4.75581       -0.55935
N          4.37102        5.20937       -0.60773
C          4.73243        6.04916        0.54074
C          4.68501        5.33683        1.87818
C          3.78797        5.79424        2.86032
C          3.71012        5.16677        4.10202
C          4.52797        4.07646        4.37766
C          5.42594        3.61034        3.41402
C          5.51314        4.23240        2.16334
O          6.35743        3.83967        1.15625
C          7.19189        2.71510        1.40238
H          0.19076       -0.39890       -0.67703
H          0.85593       -0.28014        0.95763
H          1.94000       -0.54743       -0.40779
H          0.28066        1.93277        0.23188
H          2.03423        1.83611        0.34562
H          2.32750        1.60177       -3.39661
H          2.83968        0.54648       -2.09028
H          3.93901        2.35448       -0.93380
H          4.28645        2.73352       -2.62734
H          2.77607        4.49569       -2.69159
H          0.57954        3.86530       -0.96219
H          0.70136        3.64677       -2.69595
H          2.31292        5.62640       -0.54403
H          2.78827        4.17790        0.35181
H          4.99745        4.40201       -0.58504
H          5.75262        6.42414        0.39121
H          4.09483        6.94196        0.55167
H          3.14067        6.64480        2.65742
H          3.01229        5.52935        4.85236
H          4.46907        3.58563        5.34595
H          6.04381        2.75745        3.67365
H          7.78782        2.53855        0.50179
H          7.88517        2.91050        2.22696
H          6.59657        1.81492        1.58779

--Link1--
%chk=JID_8393.chk
%mem=8GB
%nprocshared=4
# B3LYP/6-311++G(d,p) empiricaldispersion=gd3bj scf=xqc pop=npa geom=check

CID_53510160_JID_8393_Energie_neutraal

0 1

--Link1--
%chk=JID_8393.chk
%mem=8GB
%nprocshared=4
# B3LYP/6-311++G(d,p) empiricaldispersion=gd3bj scf=xqc pop=npa geom=check

CID_53510160_JID_8393_Energie_kation

1 2

--Link1--
%chk=JID_8393.chk
%mem=8GB
%nprocshared=4
# B3LYP/6-311++G(d,p) empiricaldispersion=gd3bj scf=xqc pop=npa geom=check

CID_53510160_JID_8393_Energie_anion

-1 2
