%chk=JID_10074.chk
%mem=8GB
%nprocshared=4
# opt freq B3LYP/6-31G(d) empiricaldispersion=gd3bj scf=xqc

CID_84204964_JID_10074_neutraal

0 1
C          1.05254       -0.07217        0.04507
C          0.81736        1.42249        0.18855
O          1.11142        2.09842       -1.03969
C          2.43465        2.41395       -1.17976
C          3.08970        3.28234       -0.31290
C          4.43753        3.58640       -0.52442
C          5.14875        3.03738       -1.60847
C          4.45112        2.20420       -2.49476
C          3.10327        1.89795       -2.28464
C          6.59910        3.45080       -1.79496
N          7.47839        2.55420       -2.54666
C          7.54022        2.71647       -4.00915
C          7.99142        1.38525       -4.62277
C          7.81813        0.45467       -3.47224
C          7.57918        1.17788       -2.29303
C          7.51697        0.48997       -1.07561
C          7.50049       -0.91415       -1.11094
C          7.69979       -1.61813       -2.30707
C          7.89042       -0.92981       -3.49977
N          7.31268        1.14134        0.15478
H          0.50017       -0.46933       -0.81283
H          0.73332       -0.60188        0.94720
H          2.11177       -0.28864       -0.12666
H         -0.24473        1.59587        0.39413
H          1.37210        1.82512        1.04351
H          2.56228        3.73695        0.51950
H          4.93542        4.26141        0.16845
H          4.94740        1.76301       -3.35262
H          2.58231        1.24335       -2.97724
H          6.58851        4.42662       -2.29979
H          7.05261        3.64905       -0.81792
H          6.56215        2.99912       -4.41725
H          8.23738        3.52040       -4.27201
H          7.37047        1.11056       -5.48037
H          9.04299        1.42720       -4.92460
H          7.35780       -1.47702       -0.19220
H          7.71405       -2.70467       -2.29682
H          8.06887       -1.46442       -4.42664
H          7.78146        2.04119        0.14484
H          7.60036        0.58118        0.94894

--Link1--
%chk=JID_10074.chk
%mem=8GB
%nprocshared=4
# B3LYP/6-311++G(d,p) empiricaldispersion=gd3bj scf=xqc pop=npa geom=check

CID_84204964_JID_10074_Energie_neutraal

0 1

--Link1--
%chk=JID_10074.chk
%mem=8GB
%nprocshared=4
# B3LYP/6-311++G(d,p) empiricaldispersion=gd3bj scf=xqc pop=npa geom=check

CID_84204964_JID_10074_Energie_kation

1 2

--Link1--
%chk=JID_10074.chk
%mem=8GB
%nprocshared=4
# B3LYP/6-311++G(d,p) empiricaldispersion=gd3bj scf=xqc pop=npa geom=check

CID_84204964_JID_10074_Energie_anion

-1 2
