%chk=JID_9809.chk
%mem=8GB
%nprocshared=4
# opt freq B3LYP/6-31G(d) empiricaldispersion=gd3bj scf=xqc

CID_104431860_JID_9809_neutraal

0 1
C         -1.50500        0.02200       -0.20100
C         -1.13641        0.77454        1.07549
C          0.34267        1.14762        1.07887
N          1.15164       -0.05740        0.91137
C          0.89668       -0.78436       -0.33442
C         -0.57760       -1.16262       -0.46180
C          2.07708       -0.37909        1.89121
O          2.28553        0.36000        2.85872
C          2.79598       -1.71073        1.83497
C          2.13023       -2.72425        2.76687
N          0.83772       -3.19044        2.24858
C          0.22140       -4.21301        3.12058
C         -1.10045       -3.68825        3.72244
C         -2.21966       -3.51525        2.69508
C         -2.43231       -4.77142        1.85797
C         -1.13271       -5.29602        1.25179
C         -0.05675       -5.52039        2.33235
C          1.19700       -6.15849        1.70488
N          2.14760       -6.62752        2.71341
H         -2.54260       -0.32539       -0.14179
H         -1.44959        0.71264       -1.05179
H         -1.75060        1.67706        1.16567
H         -1.35615        0.14074        1.94371
H          0.57472        1.82635        0.24918
H          0.58384        1.67406        2.00714
H          1.50572       -1.68115       -0.43283
H          1.18168       -0.11655       -1.15698
H         -0.81024       -1.95620        0.25243
H         -0.77087       -1.57301       -1.45938
H          2.91490       -2.10361        0.82562
H          3.81979       -1.52578        2.18602
H          2.80982       -3.57746        2.86854
H          1.99384       -2.28430        3.76232
H          0.21837       -2.38018        2.19050
H          0.88238       -4.44453        3.96556
H         -1.43947       -4.39641        4.49006
H         -0.92996       -2.73585        4.23985
H         -1.99637       -2.67002        2.03690
H         -3.15253       -3.26096        3.21181
H         -3.15380       -4.56429        1.05927
H         -2.87537       -5.55267        2.48813
H         -0.77102       -4.59588        0.48884
H         -1.34342       -6.24002        0.73445
H         -0.46839       -6.25086        3.04526
H          0.89928       -7.02621        1.10505
H          1.69848       -5.46126        1.02474
H          2.94359       -7.05603        2.24244
H          2.52391       -5.82683        3.21785

--Link1--
%chk=JID_9809.chk
%mem=8GB
%nprocshared=4
# B3LYP/6-311++G(d,p) empiricaldispersion=gd3bj scf=xqc pop=npa geom=check

CID_104431860_JID_9809_Energie_neutraal

0 1

--Link1--
%chk=JID_9809.chk
%mem=8GB
%nprocshared=4
# B3LYP/6-311++G(d,p) empiricaldispersion=gd3bj scf=xqc pop=npa geom=check

CID_104431860_JID_9809_Energie_kation

1 2

--Link1--
%chk=JID_9809.chk
%mem=8GB
%nprocshared=4
# B3LYP/6-311++G(d,p) empiricaldispersion=gd3bj scf=xqc pop=npa geom=check

CID_104431860_JID_9809_Energie_anion

-1 2
