%chk=JID_9270.chk
%mem=8GB
%nprocshared=4
# opt freq B3LYP/6-31G(d) empiricaldispersion=gd3bj scf=xqc

CID_108941730_JID_9270_neutraal

0 1
C          0.92259       -0.02633        0.05757
C          0.35110       -0.08753        1.47659
C          1.14663        0.83226        2.40288
C         -1.13745        0.29454        1.50629
N         -1.94203       -0.59623        0.69107
C         -2.61521       -1.72613        1.02414
O         -3.17398       -2.33676        0.10762
C         -2.78032       -2.16984        2.45259
C         -1.54322       -2.48953        3.23705
O         -1.04671       -1.62734        3.97553
N         -0.95581       -3.71489        3.28226
C         -1.12365       -4.93554        2.61064
C         -1.89279       -5.13705        1.46957
C         -1.95190       -6.39674        0.85493
C         -1.24638       -7.47778        1.38380
C         -0.47525       -7.29085        2.53005
C         -0.41003       -6.02784        3.13007
C         -1.30682       -8.76286        0.75128
N         -1.35120       -9.80434        0.24228
H          0.79915        0.97121       -0.37759
H          0.43115       -0.74903       -0.60157
H          1.99219       -0.26269        0.06070
H          0.47232       -1.11728        1.83100
H          1.07817        1.87698        2.08072
H          0.77282        0.76866        3.43014
H          2.20505        0.55105        2.41533
H         -1.52920        0.30534        2.52614
H         -1.27711        1.30186        1.09692
H         -1.95149       -0.42133       -0.30766
H         -3.31454       -1.37013        2.98231
H         -3.46079       -3.02714        2.49178
H         -0.22667       -3.70644        3.98906
H         -2.44276       -4.34454        0.98805
H         -2.54938       -6.51453       -0.04849
H          0.08265       -8.11897        2.96341
H          0.20328       -5.91555        4.02248

--Link1--
%chk=JID_9270.chk
%mem=8GB
%nprocshared=4
# B3LYP/6-311++G(d,p) empiricaldispersion=gd3bj scf=xqc pop=npa geom=check

CID_108941730_JID_9270_Energie_neutraal

0 1

--Link1--
%chk=JID_9270.chk
%mem=8GB
%nprocshared=4
# B3LYP/6-311++G(d,p) empiricaldispersion=gd3bj scf=xqc pop=npa geom=check

CID_108941730_JID_9270_Energie_kation

1 2

--Link1--
%chk=JID_9270.chk
%mem=8GB
%nprocshared=4
# B3LYP/6-311++G(d,p) empiricaldispersion=gd3bj scf=xqc pop=npa geom=check

CID_108941730_JID_9270_Energie_anion

-1 2
