%chk=JID_5358.chk
%mem=8GB
%nprocshared=4
# opt freq B3LYP/6-31G(d) empiricaldispersion=gd3bj scf=xqc

CID_116764993_JID_5358_neutraal

0 1
C          0.94208       -0.01777       -0.07956
C          0.27311       -1.00253        0.86676
N          1.09606       -1.16436        2.06346
C          0.52093       -2.14434        3.02082
C          0.78097       -3.59939        2.52853
O          2.13937       -3.73994        2.08304
C          2.39209       -5.04761        1.58753
C          1.01906       -1.91516        4.52104
C          0.64012       -0.47483        4.95360
C          1.47108        0.07459        6.10549
O          2.86108       -0.09485        5.85958
C          3.21767       -1.46985        5.80932
C          2.53750       -2.17805        4.64574
O          0.24724       -2.90639        5.25024
C          0.27013       -2.92799        6.66123
H          1.07438        0.96060        0.39486
H          0.32684        0.12246       -0.97419
H          1.92487       -0.37987       -0.40012
H         -0.71605       -0.61753        1.13858
H          0.13728       -1.95462        0.34355
H          2.01085       -1.53509        1.78301
H         -0.57116       -2.01579        3.05611
H          0.57717       -4.33445        3.31418
H          0.11560       -3.82099        1.68538
H          2.22948       -5.79301        2.37168
H          1.75284       -5.26006        0.72520
H          3.43637       -5.09811        1.26795
H          0.80680        0.21444        4.11793
H         -0.42441       -0.41368        5.20816
H          1.28308        1.14903        6.20695
H          1.21488       -0.37625        7.06827
H          3.00367       -1.93817        6.77359
H          4.30412       -1.52291        5.67814
H          2.74254       -3.25233        4.71744
H          3.03995       -1.80807        3.74468
H          1.27588       -3.08280        7.04907
H         -0.18897       -2.03053        7.07926
H         -0.33591       -3.77854        6.98841

--Link1--
%chk=JID_5358.chk
%mem=8GB
%nprocshared=4
# B3LYP/6-311++G(d,p) empiricaldispersion=gd3bj scf=xqc pop=npa geom=check

CID_116764993_JID_5358_Energie_neutraal

0 1

--Link1--
%chk=JID_5358.chk
%mem=8GB
%nprocshared=4
# B3LYP/6-311++G(d,p) empiricaldispersion=gd3bj scf=xqc pop=npa geom=check

CID_116764993_JID_5358_Energie_kation

1 2

--Link1--
%chk=JID_5358.chk
%mem=8GB
%nprocshared=4
# B3LYP/6-311++G(d,p) empiricaldispersion=gd3bj scf=xqc pop=npa geom=check

CID_116764993_JID_5358_Energie_anion

-1 2
