%chk=JID_10159.chk
%mem=8GB
%nprocshared=4
# opt freq B3LYP/6-31G(d) empiricaldispersion=gd3bj scf=xqc

CID_137736925_JID_10159_neutraal

0 1
C          2.55400       -0.41400        0.00000
C          2.34297        0.85704       -0.52486
C          1.05599        1.28959       -0.85977
C         -0.01688        0.40633       -0.65319
C          0.16993       -0.86953       -0.12258
C          1.47689       -1.28200        0.20753
N         -0.98198       -1.62124        0.03157
C         -2.03251       -0.95137       -0.40054
S         -1.69042        0.63799       -0.96890
C         -3.40910       -1.47921       -0.36839
C         -3.73235       -2.48102        0.56040
C         -5.02235       -3.02531        0.62688
C         -6.02569       -2.58670       -0.24458
C         -5.70468       -1.59532       -1.18104
C         -4.41581       -1.04822       -1.24337
C         -7.37276       -3.13119       -0.21504
C         -7.89785       -4.00577        0.70962
O         -9.19277       -4.26218        0.36815
C         -9.38362       -3.51925       -0.75525
N         -8.34175       -2.82340       -1.14780
H          3.56083       -0.73687        0.25446
H          3.18889        1.52415       -0.67796
H          0.89240        2.28135       -1.27021
H          1.63608       -2.27374        0.61894
H         -2.96946       -2.84856        1.24631
H         -5.21237       -3.79984        1.36482
H         -6.46114       -1.24060       -1.88013
H         -4.21918       -0.29378       -2.00135
H         -7.53440       -4.50379        1.59587
H        -10.36256       -3.57211       -1.21065

--Link1--
%chk=JID_10159.chk
%mem=8GB
%nprocshared=4
# B3LYP/6-311++G(d,p) empiricaldispersion=gd3bj scf=xqc pop=npa geom=check

CID_137736925_JID_10159_Energie_neutraal

0 1

--Link1--
%chk=JID_10159.chk
%mem=8GB
%nprocshared=4
# B3LYP/6-311++G(d,p) empiricaldispersion=gd3bj scf=xqc pop=npa geom=check

CID_137736925_JID_10159_Energie_kation

1 2

--Link1--
%chk=JID_10159.chk
%mem=8GB
%nprocshared=4
# B3LYP/6-311++G(d,p) empiricaldispersion=gd3bj scf=xqc pop=npa geom=check

CID_137736925_JID_10159_Energie_anion

-1 2
