%chk=JID_8048.chk
%mem=8GB
%nprocshared=4
# opt freq B3LYP/6-31G(d) empiricaldispersion=gd3bj scf=xqc

CID_83967835_JID_8048_neutraal

0 1
C          1.34400       -0.22500        0.03600
C          0.75586        1.01957       -0.17473
C         -0.63458        1.14091       -0.19908
C         -1.45588        0.01855       -0.00584
C         -0.84605       -1.23069        0.19892
C          0.54456       -1.34944        0.22323
C         -2.95329        0.17545       -0.08007
C         -3.54150       -0.25966       -1.42608
O         -3.28728        0.23905       -2.51678
N         -4.42658       -1.28082       -1.20246
C         -4.53647       -1.52848        0.13261
O         -5.26864       -2.33444        0.68033
N         -3.66995       -0.70162        0.80622
C         -5.18107       -1.96744       -2.23707
C         -6.31434       -1.11007       -2.79827
C         -6.03313       -0.73632       -4.23781
N         -6.52087       -1.41710       -5.22220
N         -5.22507        0.32035       -4.51456
H          2.42687       -0.31920        0.05070
H          1.38097        1.89584       -0.32792
H         -1.07098        2.12138       -0.38127
H         -1.44621       -2.12808        0.33683
H          1.00425       -2.32174        0.38260
H         -3.27404        1.19780        0.14643
H         -3.59538       -0.71242        1.81423
H         -4.47281       -2.26346       -3.01971
H         -5.60069       -2.88233       -1.80381
H         -7.25214       -1.67704       -2.76880
H         -6.46855       -0.19421       -2.21648
H         -7.11593       -2.18097       -4.88710
H         -4.44565        0.47758       -3.86952
H         -4.91856        0.32050       -5.48210

--Link1--
%chk=JID_8048.chk
%mem=8GB
%nprocshared=4
# B3LYP/6-311++G(d,p) empiricaldispersion=gd3bj scf=xqc pop=npa geom=check

CID_83967835_JID_8048_Energie_neutraal

0 1

--Link1--
%chk=JID_8048.chk
%mem=8GB
%nprocshared=4
# B3LYP/6-311++G(d,p) empiricaldispersion=gd3bj scf=xqc pop=npa geom=check

CID_83967835_JID_8048_Energie_kation

1 2

--Link1--
%chk=JID_8048.chk
%mem=8GB
%nprocshared=4
# B3LYP/6-311++G(d,p) empiricaldispersion=gd3bj scf=xqc pop=npa geom=check

CID_83967835_JID_8048_Energie_anion

-1 2
