%chk=JID_1853.chk
%mem=8GB
%nprocshared=4
# opt freq B3LYP/6-31G(d) empiricaldispersion=gd3bj scf=xqc

CID_66226772_JID_1853_neutraal

0 1
C          1.06928       -0.06532        0.03055
C          0.06881        0.51834        1.03343
C          0.34613        2.01590        1.28379
N          0.17610        2.84582        0.09441
C         -1.40103        0.30760        0.62234
S         -1.92691       -1.44505        0.62768
C         -1.71578       -1.87062       -1.13797
C         -2.76879       -1.23082       -2.04947
C         -2.18246       -0.26970       -3.09107
C         -1.26826       -0.94733       -4.07316
C          0.01476       -0.60956       -4.25533
H          0.86652        0.27586       -0.98953
H          1.04259       -1.15911        0.03705
H          2.09302        0.22745        0.28829
H          0.23429        0.01205        1.99464
H         -0.32958        2.38385        2.06457
H          1.36637        2.14444        1.66405
H          0.34342        3.82157        0.34167
H          0.89136        2.61077       -0.59337
H         -2.04699        0.80999        1.35168
H         -1.61736        0.76283       -0.34653
H         -0.69354       -1.64497       -1.44659
H         -1.82248       -2.95974       -1.19445
H         -3.29996       -2.03219       -2.58077
H         -3.53376       -0.69688       -1.47281
H         -3.00923        0.17766       -3.65629
H         -1.66752        0.55713       -2.58975
H         -1.69430       -1.74760       -4.67514
H          0.62813       -1.12795       -4.98598
H          0.48115        0.18918       -3.68675

--Link1--
%chk=JID_1853.chk
%mem=8GB
%nprocshared=4
# B3LYP/6-311++G(d,p) empiricaldispersion=gd3bj scf=xqc pop=npa geom=check

CID_66226772_JID_1853_Energie_neutraal

0 1

--Link1--
%chk=JID_1853.chk
%mem=8GB
%nprocshared=4
# B3LYP/6-311++G(d,p) empiricaldispersion=gd3bj scf=xqc pop=npa geom=check

CID_66226772_JID_1853_Energie_kation

1 2

--Link1--
%chk=JID_1853.chk
%mem=8GB
%nprocshared=4
# B3LYP/6-311++G(d,p) empiricaldispersion=gd3bj scf=xqc pop=npa geom=check

CID_66226772_JID_1853_Energie_anion

-1 2
