%chk=JID_6424.chk
%mem=8GB
%nprocshared=4
# opt freq B3LYP/6-31G(d) empiricaldispersion=gd3bj scf=xqc

CID_23262996_JID_6424_neutraal

0 1
C          2.26000        1.82000        0.03500
C          1.08186        0.90792       -0.14087
C         -0.15164        1.41489       -0.55887
C         -1.27065        0.57789       -0.71207
C         -1.15774       -0.79477       -0.39546
C          0.08406       -1.31177        0.03915
C          1.18742       -0.45143        0.16410
C          0.26200       -2.76943        0.37781
C         -2.30529       -1.71136       -0.52814
C         -3.39077       -1.62632        0.25742
C         -4.54400       -2.51692        0.20215
C         -5.76038       -2.20203        0.68703
C         -6.16991       -0.90252        1.26327
O         -7.30243       -0.73495        1.69944
C         -4.33257       -3.88909       -0.39495
C         -2.56133        1.19420       -1.18526
H          2.21366        2.65879       -0.66751
H          2.27883        2.21406        1.05572
H          3.19780        1.28816       -0.15716
H         -0.24154        2.47764       -0.77856
H          2.14280       -0.84657        0.50531
H         -0.42567       -3.06412        1.17699
H          0.08573       -3.38964       -0.50702
H          1.27820       -2.98014        0.72810
H         -2.19783       -2.46999       -1.29728
H         -3.40948       -0.83624        1.00577
H         -6.57663       -2.91868        0.64685
H         -5.42379       -0.09448        1.26646
H         -4.14141       -3.82119       -1.47104
H         -3.48655       -4.39409        0.08487
H         -5.20700       -4.53613       -0.26159
H         -3.24438        1.33602       -0.34204
H         -2.38819        2.17303       -1.64595
H         -3.04006        0.57022       -1.94655

--Link1--
%chk=JID_6424.chk
%mem=8GB
%nprocshared=4
# B3LYP/6-311++G(d,p) empiricaldispersion=gd3bj scf=xqc pop=npa geom=check

CID_23262996_JID_6424_Energie_neutraal

0 1

--Link1--
%chk=JID_6424.chk
%mem=8GB
%nprocshared=4
# B3LYP/6-311++G(d,p) empiricaldispersion=gd3bj scf=xqc pop=npa geom=check

CID_23262996_JID_6424_Energie_kation

1 2

--Link1--
%chk=JID_6424.chk
%mem=8GB
%nprocshared=4
# B3LYP/6-311++G(d,p) empiricaldispersion=gd3bj scf=xqc pop=npa geom=check

CID_23262996_JID_6424_Energie_anion

-1 2
