%chk=JID_4218.chk
%mem=8GB
%nprocshared=4
# opt freq B3LYP/6-31G(d) empiricaldispersion=gd3bj scf=xqc

CID_135264081_JID_4218_neutraal

0 1
C          1.07084        0.00854       -0.07006
C         -0.10721       -0.08203       -0.70128
C         -1.40255        0.21963       -0.07780
O         -2.48488       -0.10971       -0.52588
O         -1.29696        0.92470        1.06383
C          0.92384        3.89327        0.40345
C          1.12028        4.77874       -0.80891
S          1.58611        3.86953       -2.27721
O          0.61916        2.81059       -2.50347
O          1.84047        4.84328       -3.32618
C          3.14488        3.07596       -1.93045
C          4.21421        4.04864       -1.48731
O          4.07747        4.30328       -0.09215
O         -0.44956        3.54199        0.52661
H          1.14644        0.31552        0.96798
H          1.98910       -0.24314       -0.58980
H         -0.16617       -0.41299       -1.73262
H         -2.23802        1.03755        1.32338
H          1.18314        4.44772        1.31066
H          1.52712        2.98388        0.37953
H          0.20220        5.31923       -1.06335
H          1.90955        5.51566       -0.63821
H          2.96884        2.29291       -1.18909
H          3.44060        2.60120       -2.87247
H          5.20108        3.59905       -1.63750
H          4.17707        4.99886       -2.02750
H          4.83837        4.85453        0.17179
H         -0.49409        2.63757        0.89744

--Link1--
%chk=JID_4218.chk
%mem=8GB
%nprocshared=4
# B3LYP/6-311++G(d,p) empiricaldispersion=gd3bj scf=xqc pop=npa geom=check

CID_135264081_JID_4218_Energie_neutraal

0 1

--Link1--
%chk=JID_4218.chk
%mem=8GB
%nprocshared=4
# B3LYP/6-311++G(d,p) empiricaldispersion=gd3bj scf=xqc pop=npa geom=check

CID_135264081_JID_4218_Energie_kation

1 2

--Link1--
%chk=JID_4218.chk
%mem=8GB
%nprocshared=4
# B3LYP/6-311++G(d,p) empiricaldispersion=gd3bj scf=xqc pop=npa geom=check

CID_135264081_JID_4218_Energie_anion

-1 2
