%chk=JID_8897.chk
%mem=8GB
%nprocshared=4
# opt freq B3LYP/6-31G(d) empiricaldispersion=gd3bj scf=xqc

CID_115330850_JID_8897_neutraal

0 1
C          0.95354        0.05502        0.06939
C          0.70436        1.54669       -0.17263
C          1.25972        2.03574       -1.52711
C          0.65837        1.36275       -2.73173
C          1.12484        0.25467       -3.41240
C          0.29539       -0.09259       -4.51726
C         -0.76970        0.76852       -4.65258
S         -0.76389        1.98862       -3.45663
N         -0.72276        1.85290       -0.02897
C         -1.42869        1.93583        1.14940
O         -2.59742        1.54967        1.16182
C         -0.78506        2.49068        2.32255
C         -1.05461        2.15932        3.63912
N         -0.22970        2.94768        4.40664
N          0.51924        3.80403        3.68196
C          0.15997        3.53747        2.42445
C         -0.11124        2.94787        5.84472
N         -1.92246        1.25833        4.16025
H          0.35589       -0.57095       -0.60141
H          0.67849       -0.22019        1.09369
H          2.01037       -0.19362       -0.07144
H          1.25675        2.08288        0.60252
H          1.11370        3.12150       -1.60411
H          2.34600        1.87598       -1.54391
H          2.01981       -0.28750       -3.13057
H          0.47312       -0.92903       -5.18205
H         -1.55021        0.74474       -5.40077
H         -1.31382        1.46475       -0.75699
H          0.59647        4.12431        1.62671
H         -1.01965        3.38892        6.26216
H          0.01133        1.91755        6.18753
H          0.76099        3.53740        6.13939
H         -2.64159        0.89256        3.52901
H         -2.27116        1.34894        5.11034

--Link1--
%chk=JID_8897.chk
%mem=8GB
%nprocshared=4
# B3LYP/6-311++G(d,p) empiricaldispersion=gd3bj scf=xqc pop=npa geom=check

CID_115330850_JID_8897_Energie_neutraal

0 1

--Link1--
%chk=JID_8897.chk
%mem=8GB
%nprocshared=4
# B3LYP/6-311++G(d,p) empiricaldispersion=gd3bj scf=xqc pop=npa geom=check

CID_115330850_JID_8897_Energie_kation

1 2

--Link1--
%chk=JID_8897.chk
%mem=8GB
%nprocshared=4
# B3LYP/6-311++G(d,p) empiricaldispersion=gd3bj scf=xqc pop=npa geom=check

CID_115330850_JID_8897_Energie_anion

-1 2
