%chk=JID_5198.chk
%mem=8GB
%nprocshared=4
# opt freq B3LYP/6-31G(d) empiricaldispersion=gd3bj scf=xqc

CID_53907609_JID_5198_neutraal

0 1
C          1.04192       -0.06089       -0.06734
C          0.75383        0.70275        1.21324
C          0.24255        2.12036        0.97502
C         -0.25403        2.54967        2.35237
C         -0.79708        1.27033        2.99293
C         -0.35421        0.07712        2.09794
C          0.15259       -0.66593        3.38277
C          0.03579        0.67106        4.16560
C         -0.67001        0.71271        5.51465
C          0.02660       -0.19043        6.52866
C         -0.42893       -1.64856        6.45799
C         -0.01847       -2.40657        5.19564
C         -0.63528       -1.86522        3.90573
C         -1.51647       -0.54995        1.33067
O         -1.29521        3.50601        2.23139
H          0.18132       -0.07532       -0.74362
H          1.31441       -1.09810        0.15352
H          1.87455        0.40151       -0.60791
H          1.69267        0.76816        1.78082
H          1.02320        2.79016        0.59984
H         -0.57574        2.13833        0.24443
H          0.55449        2.98763        2.94759
H         -1.87690        1.29430        3.19015
H          1.20168       -0.97849        3.26740
H          1.02638        1.14149        4.26255
H         -1.72801        0.43966        5.42577
H         -0.64549        1.74495        5.88533
H         -0.21813        0.17821        7.53281
H          1.11653       -0.12948        6.42685
H         -1.51847       -1.69947        6.57705
H         -0.00369       -2.17748        7.32041
H         -0.34970       -3.44567        5.31783
H          1.07515       -2.43519        5.12027
H         -1.69266       -1.62390        4.05994
H         -0.59622       -2.66069        3.15139
H         -2.35946       -0.78256        1.98965
H         -1.89879        0.12423        0.55711
H         -1.20969       -1.48381        0.84852
H         -0.93607        4.26682        1.74380

--Link1--
%chk=JID_5198.chk
%mem=8GB
%nprocshared=4
# B3LYP/6-311++G(d,p) empiricaldispersion=gd3bj scf=xqc pop=npa geom=check

CID_53907609_JID_5198_Energie_neutraal

0 1

--Link1--
%chk=JID_5198.chk
%mem=8GB
%nprocshared=4
# B3LYP/6-311++G(d,p) empiricaldispersion=gd3bj scf=xqc pop=npa geom=check

CID_53907609_JID_5198_Energie_kation

1 2

--Link1--
%chk=JID_5198.chk
%mem=8GB
%nprocshared=4
# B3LYP/6-311++G(d,p) empiricaldispersion=gd3bj scf=xqc pop=npa geom=check

CID_53907609_JID_5198_Energie_anion

-1 2
