%chk=JID_9733.chk
%mem=8GB
%nprocshared=4
# opt freq B3LYP/6-31G(d) empiricaldispersion=gd3bj scf=xqc

CID_78804433_JID_9733_neutraal

0 1
C          2.49200        0.00400       -0.01400
C          0.98934       -0.02144        0.03479
C          0.33144       -1.26255       -0.00582
C         -1.06074       -1.33853        0.03625
C         -1.81701       -0.17526        0.11961
C         -1.17976        1.06342        0.16881
C          0.22416        1.16006        0.14037
C          0.84839        2.54057        0.17977
N          0.76023        3.17373       -1.13218
C          1.40487        4.48201       -1.19513
C          2.93768        4.45889       -1.22459
C          3.54373        3.76012       -2.44411
N          3.18131        4.36671       -3.71228
C          2.56537        3.78192       -4.79047
C          2.44363        4.78363       -5.73063
C          3.02831        5.92500       -5.14330
N          3.49097        5.66263       -3.91705
C          3.16529        7.28296       -5.71927
C          2.14609        2.36141       -4.84906
H          2.89585        0.34283        0.94515
H          2.90481       -0.98994       -0.21739
H          2.83871        0.66593       -0.81383
H          0.90309       -2.18580       -0.07443
H         -1.55383       -2.30616       -0.00095
H         -2.90195       -0.22898        0.14254
H         -1.78226        1.96881        0.22013
H          0.31528        3.14331        0.92616
H          1.88335        2.47430        0.52745
H          1.11129        2.54228       -1.84597
H          1.03385        4.99413       -2.09018
H          1.07110        5.09701       -0.35004
H          3.29210        5.49707       -1.18856
H          3.32543        3.98112       -0.31760
H          4.63817        3.80163       -2.38763
H          3.26543        2.70296       -2.46388
H          1.99607        4.70091       -6.71120
H          2.55150        7.99780       -5.16185
H          4.20733        7.61636       -5.68085
H          2.84309        7.30225       -6.76530
H          2.99506        1.69602       -4.66318
H          1.36759        2.15455       -4.10922
H          1.74144        2.11542       -5.83638

--Link1--
%chk=JID_9733.chk
%mem=8GB
%nprocshared=4
# B3LYP/6-311++G(d,p) empiricaldispersion=gd3bj scf=xqc pop=npa geom=check

CID_78804433_JID_9733_Energie_neutraal

0 1

--Link1--
%chk=JID_9733.chk
%mem=8GB
%nprocshared=4
# B3LYP/6-311++G(d,p) empiricaldispersion=gd3bj scf=xqc pop=npa geom=check

CID_78804433_JID_9733_Energie_kation

1 2

--Link1--
%chk=JID_9733.chk
%mem=8GB
%nprocshared=4
# B3LYP/6-311++G(d,p) empiricaldispersion=gd3bj scf=xqc pop=npa geom=check

CID_78804433_JID_9733_Energie_anion

-1 2
