%chk=JID_6782.chk
%mem=8GB
%nprocshared=4
# opt freq B3LYP/6-31G(d) empiricaldispersion=gd3bj scf=xqc

CID_90049515_JID_6782_neutraal

0 1
C          0.96486       -0.07263       -0.05908
N          0.53107       -0.62767        1.20726
C         -0.71009       -0.11595        1.76141
C          1.11323       -1.80531        1.64453
O          2.11610       -2.29876        1.14311
O          0.40571       -2.39263        2.64657
C          0.86646       -3.69203        3.04641
C          0.23924       -4.71199        2.17293
C         -0.25452       -4.72058        0.89031
C         -0.64845       -6.05880        0.66762
N         -0.44032       -6.80899        1.75761
O          0.12543       -5.96324        2.69603
C         -1.23983       -6.64754       -0.56078
C         -0.20126       -6.97109       -1.59967
O         -0.11588       -8.01746       -2.22465
O          0.61969       -5.94363       -1.90065
H          1.00103        1.01777        0.01993
H          0.24522       -0.36062       -0.83136
H          1.95492       -0.43662       -0.34648
H         -1.54551       -0.52912        1.18907
H         -0.82288       -0.39271        2.81290
H         -0.71626        0.97560        1.68845
H          1.95976       -3.76213        3.03362
H          0.54449       -3.83684        4.08317
H         -0.29347       -3.89230        0.19847
H         -1.77586       -7.57217       -0.31679
H         -1.96703       -5.96062       -1.00817
H          1.22665       -6.31013       -2.57831

--Link1--
%chk=JID_6782.chk
%mem=8GB
%nprocshared=4
# B3LYP/6-311++G(d,p) empiricaldispersion=gd3bj scf=xqc pop=npa geom=check

CID_90049515_JID_6782_Energie_neutraal

0 1

--Link1--
%chk=JID_6782.chk
%mem=8GB
%nprocshared=4
# B3LYP/6-311++G(d,p) empiricaldispersion=gd3bj scf=xqc pop=npa geom=check

CID_90049515_JID_6782_Energie_kation

1 2

--Link1--
%chk=JID_6782.chk
%mem=8GB
%nprocshared=4
# B3LYP/6-311++G(d,p) empiricaldispersion=gd3bj scf=xqc pop=npa geom=check

CID_90049515_JID_6782_Energie_anion

-1 2
