%chk=JID_7557.chk
%mem=8GB
%nprocshared=4
# opt freq B3LYP/6-31G(d) empiricaldispersion=gd3bj scf=xqc

CID_45118151_JID_7557_neutraal

0 1
C          1.96200       -1.04400       -1.53500
C          1.72565       -0.63566       -0.07247
C          1.67505        0.90939       -0.01106
O          2.66984        1.63150        0.01911
N          0.42312        1.45458       -0.10834
C         -0.72529        0.66870       -0.01546
C         -0.61661       -0.69466        0.23551
O          0.57407       -1.34551        0.39637
C         -1.77061       -1.45129        0.39217
C         -3.03162       -0.85047        0.27180
C         -3.16789        0.50921       -0.01808
C         -1.98445        1.26603       -0.12853
N         -4.39602        1.20262       -0.10290
C         -5.75514        0.68630       -0.27690
C         -6.12250       -0.60748       -0.93498
C         -6.37500       -0.40631        0.53789
C          2.90211       -1.12113        0.78169
H          2.87783       -0.59663       -1.93654
H          2.03270       -2.13341       -1.63130
H          1.12989       -0.72637       -2.17397
H          0.36566        2.46246       -0.15893
H         -1.69805       -2.51194        0.61776
H         -3.89308       -1.48680        0.42375
H         -2.04845        2.33661       -0.30392
H         -4.25871        2.13003       -0.50091
H         -6.42750        1.51922       -0.48724
H         -6.98030       -0.60707       -1.59886
H         -5.34188       -1.28407       -1.25228
H         -5.76958       -0.92635        1.26605
H         -7.40199       -0.27100        0.86018
H          2.97542       -2.21466        0.76569
H          3.85751       -0.70480        0.44499
H          2.75865       -0.83165        1.82945

--Link1--
%chk=JID_7557.chk
%mem=8GB
%nprocshared=4
# B3LYP/6-311++G(d,p) empiricaldispersion=gd3bj scf=xqc pop=npa geom=check

CID_45118151_JID_7557_Energie_neutraal

0 1

--Link1--
%chk=JID_7557.chk
%mem=8GB
%nprocshared=4
# B3LYP/6-311++G(d,p) empiricaldispersion=gd3bj scf=xqc pop=npa geom=check

CID_45118151_JID_7557_Energie_kation

1 2

--Link1--
%chk=JID_7557.chk
%mem=8GB
%nprocshared=4
# B3LYP/6-311++G(d,p) empiricaldispersion=gd3bj scf=xqc pop=npa geom=check

CID_45118151_JID_7557_Energie_anion

-1 2
