%chk=JID_9683.chk
%mem=8GB
%nprocshared=4
# opt freq B3LYP/6-31G(d) empiricaldispersion=gd3bj scf=xqc

CID_121817355_JID_9683_neutraal

0 1
C          2.49200        0.00400       -0.01400
C          0.99445        0.01927       -0.06707
C          0.24622       -0.98545        0.54563
C         -1.15305       -0.97552        0.47304
C         -1.84568        0.02889       -0.22284
C         -1.07917        1.01594       -0.85268
C          0.32064        1.01178       -0.77957
N         -3.27012        0.02726       -0.27335
C         -4.05827       -0.98158        0.39549
C         -5.47708       -0.78506       -0.09183
C         -5.55346        0.67311       -0.52263
C         -4.08752        1.04079       -0.80634
O         -3.75078        2.07327       -1.37117
N         -6.20494        1.64983        0.36614
C         -7.65247        1.50433        0.42455
C         -5.58051        1.94379        1.66556
C         -6.03949        1.05130        2.80952
O         -5.78348       -0.13142        2.97318
O         -6.84096        1.69152        3.68709
H          2.84914       -0.52984        0.87296
H          2.89356       -0.48788       -0.90528
H          2.88848        1.02342        0.03927
H          0.74275       -1.78456        1.09157
H         -1.67656       -1.77587        0.98648
H         -1.53719        1.81723       -1.42367
H          0.87526        1.79854       -1.28676
H         -3.96720       -0.83349        1.47436
H         -3.71313       -1.98760        0.13515
H         -6.22782       -1.08726        0.64244
H         -5.64481       -1.41954       -0.97271
H         -6.05834        0.71438       -1.49760
H         -7.96149        0.57502        0.91417
H         -8.10638        2.34501        0.96123
H         -8.08327        1.51418       -0.58290
H         -4.48646        1.91927        1.62946
H         -5.82511        2.98082        1.93022
H         -7.06995        1.00614        4.34870

--Link1--
%chk=JID_9683.chk
%mem=8GB
%nprocshared=4
# B3LYP/6-311++G(d,p) empiricaldispersion=gd3bj scf=xqc pop=npa geom=check

CID_121817355_JID_9683_Energie_neutraal

0 1

--Link1--
%chk=JID_9683.chk
%mem=8GB
%nprocshared=4
# B3LYP/6-311++G(d,p) empiricaldispersion=gd3bj scf=xqc pop=npa geom=check

CID_121817355_JID_9683_Energie_kation

1 2

--Link1--
%chk=JID_9683.chk
%mem=8GB
%nprocshared=4
# B3LYP/6-311++G(d,p) empiricaldispersion=gd3bj scf=xqc pop=npa geom=check

CID_121817355_JID_9683_Energie_anion

-1 2
