%chk=JID_2232.chk
%mem=8GB
%nprocshared=4
# opt freq B3LYP/6-31G(d) empiricaldispersion=gd3bj scf=xqc

CID_1426572_JID_2232_neutraal

0 1
C          0.97317        0.09596       -0.00845
C          0.44987        1.29404        0.80038
C          1.05557        2.62865        0.24016
N          0.83013        2.89739       -1.19090
C          1.44499        4.15740       -1.58794
C         -1.07559        1.23605        0.92998
C         -1.92901        2.21736        0.40320
C         -3.31658        2.12728        0.55646
C         -3.88000        1.05381        1.23939
C         -3.05674        0.06726        1.77088
C         -1.67134        0.15865        1.61829
O          0.99831        1.15475        2.12993
H          0.52821        0.05052       -1.00809
H          0.76501       -0.85487        0.49570
H          2.06339        0.14495       -0.11380
H          0.66991        3.46451        0.83993
H          2.13874        2.61081        0.42739
H          1.23397        2.14223       -1.74499
H          2.52927        4.14058       -1.43761
H          1.25517        4.33545       -2.65094
H          1.01806        4.99848       -1.03229
H         -1.53769        3.07020       -0.14578
H         -3.95629        2.89896        0.13532
H         -4.95828        0.98575        1.35407
H         -3.48980       -0.77506        2.30375
H         -1.04782       -0.62429        2.04812
H          0.36847        1.57918        2.73925

--Link1--
%chk=JID_2232.chk
%mem=8GB
%nprocshared=4
# B3LYP/6-311++G(d,p) empiricaldispersion=gd3bj scf=xqc pop=npa geom=check

CID_1426572_JID_2232_Energie_neutraal

0 1

--Link1--
%chk=JID_2232.chk
%mem=8GB
%nprocshared=4
# B3LYP/6-311++G(d,p) empiricaldispersion=gd3bj scf=xqc pop=npa geom=check

CID_1426572_JID_2232_Energie_kation

1 2

--Link1--
%chk=JID_2232.chk
%mem=8GB
%nprocshared=4
# B3LYP/6-311++G(d,p) empiricaldispersion=gd3bj scf=xqc pop=npa geom=check

CID_1426572_JID_2232_Energie_anion

-1 2
