%chk=JID_6905.chk
%mem=8GB
%nprocshared=4
# opt freq B3LYP/6-31G(d) empiricaldispersion=gd3bj scf=xqc

CID_79006483_JID_6905_neutraal

0 1
C          1.05369       -0.08400       -0.00786
O          0.30276        0.48631        1.06486
C          0.95315        0.49397        2.25992
O          2.09063        0.07497        2.43795
C          0.14100        1.16477        3.34340
C         -1.35996        0.89646        3.27868
C         -1.97590        2.23520        2.90409
N         -1.03792        3.25698        3.36464
C          0.30107        2.67780        3.24063
C         -1.34653        3.88418        4.65226
C         -1.42541        2.99631        5.87202
C         -0.28653        2.69645        6.62579
C         -0.41691        1.87865        7.73788
N         -1.58846        1.35061        8.14942
C         -2.67976        1.65976        7.41915
C         -2.65052        2.46676        6.29239
H          0.44540       -0.02679       -0.91472
H          1.27348       -1.13643        0.19671
H          1.97632        0.48095       -0.17373
H          0.51632        0.79231        4.30460
H         -1.71555        0.57954        4.26533
H         -1.64418        0.10841        2.57429
H         -2.04709        2.30355        1.81128
H         -2.99347        2.35630        3.28931
H          1.01128        3.06363        3.98000
H          0.70615        2.96940        2.26321
H         -0.61287        4.67887        4.84479
H         -2.29784        4.42439        4.55219
H          0.68783        3.09259        6.36105
H          0.44528        1.62174        8.34681
H         -3.61147        1.22897        7.77447
H         -3.56923        2.67570        5.75437

--Link1--
%chk=JID_6905.chk
%mem=8GB
%nprocshared=4
# B3LYP/6-311++G(d,p) empiricaldispersion=gd3bj scf=xqc pop=npa geom=check

CID_79006483_JID_6905_Energie_neutraal

0 1

--Link1--
%chk=JID_6905.chk
%mem=8GB
%nprocshared=4
# B3LYP/6-311++G(d,p) empiricaldispersion=gd3bj scf=xqc pop=npa geom=check

CID_79006483_JID_6905_Energie_kation

1 2

--Link1--
%chk=JID_6905.chk
%mem=8GB
%nprocshared=4
# B3LYP/6-311++G(d,p) empiricaldispersion=gd3bj scf=xqc pop=npa geom=check

CID_79006483_JID_6905_Energie_anion

-1 2
