%chk=JID_9239.chk
%mem=8GB
%nprocshared=4
# opt freq B3LYP/6-31G(d) empiricaldispersion=gd3bj scf=xqc

CID_68139840_JID_9239_neutraal

0 1
C          0.95460       -0.03675        0.08117
N          1.27178        1.00339       -0.89047
C          0.12698        1.50093       -1.64737
C          2.38577        1.82210       -0.75492
N          3.53855        1.74891       -0.18069
C          3.87718        0.59623        0.44031
N          3.63121        0.19854        1.67952
N          4.19644       -1.04265        1.87080
C          4.80674       -1.37216        0.75616
N          4.63977       -0.38099       -0.18904
N          5.11365       -0.38325       -1.47763
C          5.79752       -1.44433       -1.79267
C          6.05887       -2.58148       -0.85002
C          5.55373       -2.50704        0.38769
C          6.34192       -1.54625       -3.13646
C          7.11616       -2.49923       -3.77939
C          7.33217       -2.03777       -5.10215
C          6.68053       -0.83356       -5.19530
O          6.08052       -0.52873       -4.01934
H         -0.04496       -0.45412       -0.08613
H          0.97007        0.36447        1.09943
H          1.65383       -0.87286       -0.00299
H         -0.47656        2.17210       -1.02777
H          0.45322        2.04662       -2.53949
H         -0.50557        0.67569       -1.99172
H          2.22371        2.77372       -1.29386
H          6.63926       -3.43361       -1.17399
H          5.70507       -3.29459        1.11698
H          7.49020       -3.42080       -3.35743
H          7.89381       -2.52141       -5.88908
H          6.55388       -0.10615       -5.98526

--Link1--
%chk=JID_9239.chk
%mem=8GB
%nprocshared=4
# B3LYP/6-311++G(d,p) empiricaldispersion=gd3bj scf=xqc pop=npa geom=check

CID_68139840_JID_9239_Energie_neutraal

0 1

--Link1--
%chk=JID_9239.chk
%mem=8GB
%nprocshared=4
# B3LYP/6-311++G(d,p) empiricaldispersion=gd3bj scf=xqc pop=npa geom=check

CID_68139840_JID_9239_Energie_kation

1 2

--Link1--
%chk=JID_9239.chk
%mem=8GB
%nprocshared=4
# B3LYP/6-311++G(d,p) empiricaldispersion=gd3bj scf=xqc pop=npa geom=check

CID_68139840_JID_9239_Energie_anion

-1 2
