%chk=JID_7960.chk
%mem=8GB
%nprocshared=4
# opt freq B3LYP/6-31G(d) empiricaldispersion=gd3bj scf=xqc

CID_2050787_JID_7960_neutraal

0 1
C         -1.43100        0.32400       -0.23100
C         -0.70006       -0.90916        0.28835
C          0.66086       -1.08793       -0.38489
C          1.53741        0.17671       -0.24809
C          0.78199        1.39798       -0.79945
C         -0.57079        1.57718       -0.10883
N          2.86466       -0.10306       -0.81581
C          3.00722       -0.05270       -2.27855
C          3.35319        1.32312       -2.88151
N          4.39515        2.03828       -2.15087
C          4.30878        1.99254       -0.69074
C          3.98242        0.58794       -0.15769
C          5.04439        3.07743       -2.82565
O          4.94437        3.29796       -4.02814
C          5.93763        4.00840       -1.98454
O          5.52266        4.82133       -1.18161
O          7.24143        3.79230       -2.19810
H         -2.36498        0.46130        0.32537
H         -1.70465        0.17010       -1.28209
H         -0.56061       -0.82092        1.37287
H         -1.31442       -1.80056        0.11816
H          0.50039       -1.33464       -1.44168
H          1.16850       -1.94833        0.06922
H          1.66022        0.33060        0.83344
H          0.59943        1.28384       -1.87416
H          1.36662        2.31164       -0.65890
H         -1.09886        2.42956       -0.55112
H         -0.41317        1.81353        0.95068
H          3.82848       -0.73574       -2.53518
H          2.12745       -0.46575       -2.78419
H          2.47482        1.97602       -2.90220
H          3.66788        1.18766       -3.92298
H          3.54595        2.71493       -0.38262
H          5.25924        2.31721       -0.25567
H          3.84166        0.62718        0.92916
H          4.87340       -0.03749       -0.30604
H          7.69682        4.45762       -1.64418

--Link1--
%chk=JID_7960.chk
%mem=8GB
%nprocshared=4
# B3LYP/6-311++G(d,p) empiricaldispersion=gd3bj scf=xqc pop=npa geom=check

CID_2050787_JID_7960_Energie_neutraal

0 1

--Link1--
%chk=JID_7960.chk
%mem=8GB
%nprocshared=4
# B3LYP/6-311++G(d,p) empiricaldispersion=gd3bj scf=xqc pop=npa geom=check

CID_2050787_JID_7960_Energie_kation

1 2

--Link1--
%chk=JID_7960.chk
%mem=8GB
%nprocshared=4
# B3LYP/6-311++G(d,p) empiricaldispersion=gd3bj scf=xqc pop=npa geom=check

CID_2050787_JID_7960_Energie_anion

-1 2
