%chk=JID_4439.chk
%mem=8GB
%nprocshared=4
# opt freq B3LYP/6-31G(d) empiricaldispersion=gd3bj scf=xqc

CID_69796201_JID_4439_neutraal

0 1
C          1.04333        0.06997       -0.05680
N          0.96465        1.43359       -0.52276
C          0.47463        1.88297       -1.74043
O          0.63446        3.09728       -1.94778
C         -0.12784        0.89127       -2.63848
N         -0.57197       -0.36381       -2.35090
N         -1.05784       -0.92303       -3.49470
C         -0.89487        0.02957       -4.49766
C         -0.33821        1.18579       -3.97253
N         -1.24468       -0.11170       -5.92134
O         -1.79795       -1.15451       -6.31340
O         -0.95336        0.85281       -6.65451
C         -2.50102       -1.27974       -3.31115
C         -0.31784       -2.18565       -3.80022
H          1.53315       -0.56121       -0.80222
H          0.04296       -0.29681        0.18480
H          1.64535        0.06380        0.85617
H          1.34382        2.17098        0.04640
H         -0.10110        2.10222       -4.48643
H         -2.89032       -1.87822       -4.14248
H         -2.64085       -1.87922       -2.40151
H         -3.13019       -0.38462       -3.21788
H         -0.31883       -2.85612       -2.93005
H         -0.76980       -2.74513       -4.62670
H          0.72952       -1.98570       -4.06200

--Link1--
%chk=JID_4439.chk
%mem=8GB
%nprocshared=4
# B3LYP/6-311++G(d,p) empiricaldispersion=gd3bj scf=xqc pop=npa geom=check

CID_69796201_JID_4439_Energie_neutraal

0 1

--Link1--
%chk=JID_4439.chk
%mem=8GB
%nprocshared=4
# B3LYP/6-311++G(d,p) empiricaldispersion=gd3bj scf=xqc pop=npa geom=check

CID_69796201_JID_4439_Energie_kation

1 2

--Link1--
%chk=JID_4439.chk
%mem=8GB
%nprocshared=4
# B3LYP/6-311++G(d,p) empiricaldispersion=gd3bj scf=xqc pop=npa geom=check

CID_69796201_JID_4439_Energie_anion

-1 2
