%chk=JID_4859.chk
%mem=8GB
%nprocshared=4
# opt freq B3LYP/6-31G(d) empiricaldispersion=gd3bj scf=xqc

CID_70416209_JID_4859_neutraal

0 1
C          0.98162        0.07559       -0.06283
N          0.68207        1.43046        0.32963
C          0.25825        2.45478       -0.46677
O          0.21673        3.59475       -0.00148
C         -0.13340        2.16930       -1.91234
C          1.04106        2.33332       -2.84818
C          1.54965        1.28479       -3.52193
C          2.68765        1.51615       -4.41608
N          3.32703        0.65871       -5.13202
C          4.35320        1.49906       -5.79838
N          4.22428        2.91668       -5.38072
C          3.22977        2.88001       -4.56526
C          2.61613        3.97759       -3.81643
C          1.58101        3.68193       -3.01663
H          0.12727       -0.36437       -0.58136
H          1.20079       -0.50429        0.83689
H          1.85431        0.07889       -0.71976
H          0.97510        1.73892        1.25013
H         -0.57989        1.17283       -1.99015
H         -0.93434        2.86726       -2.18801
H          1.17641        0.27219       -3.44567
H          4.23111        1.42771       -6.88453
H          5.35042        1.13167       -5.53323
H          3.01821        4.97433       -3.93500
H          1.11278        4.48573       -2.44872

--Link1--
%chk=JID_4859.chk
%mem=8GB
%nprocshared=4
# B3LYP/6-311++G(d,p) empiricaldispersion=gd3bj scf=xqc pop=npa geom=check

CID_70416209_JID_4859_Energie_neutraal

0 1

--Link1--
%chk=JID_4859.chk
%mem=8GB
%nprocshared=4
# B3LYP/6-311++G(d,p) empiricaldispersion=gd3bj scf=xqc pop=npa geom=check

CID_70416209_JID_4859_Energie_kation

1 2

--Link1--
%chk=JID_4859.chk
%mem=8GB
%nprocshared=4
# B3LYP/6-311++G(d,p) empiricaldispersion=gd3bj scf=xqc pop=npa geom=check

CID_70416209_JID_4859_Energie_anion

-1 2
