%chk=JID_10714.chk
%mem=8GB
%nprocshared=4
# opt freq B3LYP/6-31G(d) empiricaldispersion=gd3bj scf=xqc

CID_61890293_JID_10714_neutraal

0 1
C          2.16200        1.33800       -0.04700
C          0.82076        0.70505       -0.13577
C         -0.46532        1.22899       -0.03519
C         -1.31610        0.09463       -0.20344
N         -0.62252       -1.03133       -0.39365
N          0.65778       -0.63406       -0.38811
C          1.69128       -1.61676       -0.61942
C         -2.79983        0.04983       -0.18081
C         -0.92526        2.64559        0.21539
C         -0.59399        3.08792        1.64168
N         -0.34334        3.48252       -0.83321
C         -0.92812        4.80675       -1.00616
C         -0.28364        5.92423       -0.18286
C         -0.81413        7.30521       -0.54371
C          0.23135        8.22844        0.06184
N          1.50212        7.49360       -0.02153
C          1.21434        6.10367       -0.39782
C          2.37794        7.69209        1.14211
C          1.92066        6.99473        2.43124
C          3.81254        7.27151        0.79977
H          2.86500        0.70177        0.50041
H          2.56377        1.51569       -1.04959
H          2.12413        2.29589        0.47763
H          2.13077       -1.88148        0.34515
H          1.25282       -2.50106       -1.08977
H          2.44519       -1.18954       -1.28497
H         -3.17568       -0.96933       -0.31884
H         -3.17750        0.42066        0.77750
H         -3.21221        0.67228       -0.98127
H         -2.01689        2.66377        0.10713
H          0.47430        3.28707        1.77532
H         -1.14481        3.99335        1.91132
H         -0.87611        2.31550        2.36680
H          0.66608        3.52027       -0.74056
H         -0.82033        5.05594       -2.06935
H         -2.00962        4.78329       -0.82351
H         -0.47148        5.76032        0.88397
H         -1.81299        7.48660       -0.13515
H         -0.85558        7.44073       -1.63163
H          0.29151        9.17475       -0.48524
H         -0.05283        8.45930        1.09443
H          1.79259        5.35511        0.15223
H          1.46653        5.98321       -1.45873
H          2.41948        8.77063        1.34606
H          1.93422        5.90402        2.33963
H          2.58633        7.26002        3.26030
H          0.90983        7.29633        2.72158
H          4.16669        7.78407       -0.10151
H          4.49324        7.53613        1.61667
H          3.89940        6.19260        0.63413

--Link1--
%chk=JID_10714.chk
%mem=8GB
%nprocshared=4
# B3LYP/6-311++G(d,p) empiricaldispersion=gd3bj scf=xqc pop=npa geom=check

CID_61890293_JID_10714_Energie_neutraal

0 1

--Link1--
%chk=JID_10714.chk
%mem=8GB
%nprocshared=4
# B3LYP/6-311++G(d,p) empiricaldispersion=gd3bj scf=xqc pop=npa geom=check

CID_61890293_JID_10714_Energie_kation

1 2

--Link1--
%chk=JID_10714.chk
%mem=8GB
%nprocshared=4
# B3LYP/6-311++G(d,p) empiricaldispersion=gd3bj scf=xqc pop=npa geom=check

CID_61890293_JID_10714_Energie_anion

-1 2
