%chk=JID_6203.chk
%mem=8GB
%nprocshared=4
# opt freq B3LYP/6-31G(d) empiricaldispersion=gd3bj scf=xqc

CID_80090022_JID_6203_neutraal

0 1
C          0.93006       -0.04456       -0.05587
C         -0.03729        0.14437       -1.21664
C          0.62071       -0.00056       -2.60728
C          1.31262       -1.38336       -2.77919
C          0.39707       -2.59600       -2.66992
C         -0.37420        0.30365       -3.76441
C         -1.21068        1.60126       -3.68937
C         -0.61136        2.93954       -4.20802
C          0.24368        2.72044       -5.47765
C          1.15642        1.50911       -5.44155
C          0.34521        0.28795       -5.10202
O          0.31497       -0.69312       -5.84411
C         -0.03386        3.95841       -3.14768
C          0.17998        5.34301       -3.81386
C         -1.04613        4.18429       -2.00040
C          1.30518        3.54093       -2.53094
H          1.26324       -1.08273        0.02881
H          0.43740        0.21632        0.88666
H          1.80919        0.59806       -0.16567
H         -0.87770       -0.55097       -1.11267
H         -0.45453        1.14743       -1.10624
H          1.43670        0.72662       -2.66429
H          1.82767       -1.42226       -3.74591
H          2.11103       -1.48452       -2.03456
H         -0.37520       -2.59334       -3.44365
H          0.98200       -3.51340       -2.79514
H         -0.08935       -2.64993       -1.69208
H         -1.10816       -0.51270       -3.79143
H         -1.68173        1.71531       -2.71209
H         -2.06960        1.41161       -4.35477
H         -1.49782        3.47834       -4.58436
H          0.83137        3.60452       -5.73577
H         -0.45314        2.58048       -6.31683
H          1.96817        1.61722       -4.71919
H          1.61628        1.36359       -6.42540
H         -0.72551        5.67931       -4.33091
H          0.43178        6.10631       -3.06753
H          1.00211        5.33233       -4.53541
H         -1.15124        3.30386       -1.36158
H         -0.72756        5.00461       -1.34610
H         -2.03662        4.44150       -2.39183
H          1.19890        2.66584       -1.89140
H          2.06190        3.33693       -3.29243
H          1.70522        4.33778       -1.89163

--Link1--
%chk=JID_6203.chk
%mem=8GB
%nprocshared=4
# B3LYP/6-311++G(d,p) empiricaldispersion=gd3bj scf=xqc pop=npa geom=check

CID_80090022_JID_6203_Energie_neutraal

0 1

--Link1--
%chk=JID_6203.chk
%mem=8GB
%nprocshared=4
# B3LYP/6-311++G(d,p) empiricaldispersion=gd3bj scf=xqc pop=npa geom=check

CID_80090022_JID_6203_Energie_kation

1 2

--Link1--
%chk=JID_6203.chk
%mem=8GB
%nprocshared=4
# B3LYP/6-311++G(d,p) empiricaldispersion=gd3bj scf=xqc pop=npa geom=check

CID_80090022_JID_6203_Energie_anion

-1 2
