%chk=JID_4129.chk
%mem=8GB
%nprocshared=4
# opt freq B3LYP/6-31G(d) empiricaldispersion=gd3bj scf=xqc

CID_127010716_JID_4129_neutraal

0 1
C          2.44200       -0.09800       -0.00700
C          0.96626        0.06742       -0.21619
N          0.51484        1.31374       -0.48506
C         -0.81140        1.46541       -0.68373
C         -1.72184        0.42448       -0.62767
C         -1.25376       -0.86114       -0.34109
C          0.11960       -1.03621       -0.13691
C         -2.19988       -2.03527       -0.28491
N         -3.26026       -1.77011        0.67975
C         -4.19414       -2.74351        0.95075
N         -4.52674       -3.19934        2.10970
C         -3.87865       -2.67213        3.29778
N         -4.84881       -3.25754       -0.15285
N         -5.34173       -2.29984       -1.09235
H          2.95829        0.86353       -0.09307
H          2.63947       -0.50256        0.99054
H          2.85631       -0.77624       -0.75936
H         -1.13366        2.48052       -0.89768
H         -2.77647        0.61543       -0.79845
H          0.53093       -2.01811        0.07910
H         -2.59687       -2.20497       -1.29157
H         -1.66017       -2.94198        0.01407
H         -2.86037       -1.38622        1.52741
H         -2.79718       -2.84187        3.27564
H         -4.08537       -1.60472        3.42684
H         -4.27195       -3.18959        4.17842
H         -5.56494       -3.91330        0.17221
H         -4.93550       -1.38653       -0.86300
H         -4.98979       -2.53392       -2.02168

--Link1--
%chk=JID_4129.chk
%mem=8GB
%nprocshared=4
# B3LYP/6-311++G(d,p) empiricaldispersion=gd3bj scf=xqc pop=npa geom=check

CID_127010716_JID_4129_Energie_neutraal

0 1

--Link1--
%chk=JID_4129.chk
%mem=8GB
%nprocshared=4
# B3LYP/6-311++G(d,p) empiricaldispersion=gd3bj scf=xqc pop=npa geom=check

CID_127010716_JID_4129_Energie_kation

1 2

--Link1--
%chk=JID_4129.chk
%mem=8GB
%nprocshared=4
# B3LYP/6-311++G(d,p) empiricaldispersion=gd3bj scf=xqc pop=npa geom=check

CID_127010716_JID_4129_Energie_anion

-1 2
