%chk=JID_5733.chk
%mem=8GB
%nprocshared=4
# opt freq B3LYP/6-31G(d) empiricaldispersion=gd3bj scf=xqc

CID_53858878_JID_5733_neutraal

0 1
C          1.06516        0.04566       -0.06058
C          0.81097       -1.14249       -0.94036
O          0.06693       -2.07180       -0.65350
S          1.70726       -1.16066       -2.45081
C          0.59622       -2.22535       -3.28702
O         -0.11322       -1.82221       -4.20543
C          0.58426       -3.69091       -2.88041
N          0.83575       -4.67288       -4.04555
C         -0.13535       -5.72182       -3.95072
O         -0.11674       -6.42540       -2.96164
C         -1.07057       -5.80717       -5.12411
C         -0.73713       -4.55846       -5.92974
C          0.58688       -4.16912       -5.35489
O          1.53236       -3.62744       -5.89094
O          2.20151       -5.16276       -3.89567
H          0.43770       -0.02697        0.83270
H          0.80777        0.96840       -0.58772
H          2.11293        0.06743        0.25091
H          1.32346       -3.91712       -2.10452
H         -0.41581       -3.89186       -2.47429
H         -0.85071       -6.71729       -5.68980
H         -2.11211       -5.80982       -4.79450
H         -0.65739       -4.77365       -6.99773
H         -1.46013       -3.75604       -5.76089
H          2.70239       -4.77801       -4.65306

--Link1--
%chk=JID_5733.chk
%mem=8GB
%nprocshared=4
# B3LYP/6-311++G(d,p) empiricaldispersion=gd3bj scf=xqc pop=npa geom=check

CID_53858878_JID_5733_Energie_neutraal

0 1

--Link1--
%chk=JID_5733.chk
%mem=8GB
%nprocshared=4
# B3LYP/6-311++G(d,p) empiricaldispersion=gd3bj scf=xqc pop=npa geom=check

CID_53858878_JID_5733_Energie_kation

1 2

--Link1--
%chk=JID_5733.chk
%mem=8GB
%nprocshared=4
# B3LYP/6-311++G(d,p) empiricaldispersion=gd3bj scf=xqc pop=npa geom=check

CID_53858878_JID_5733_Energie_anion

-1 2
