%chk=JID_9982.chk
%mem=8GB
%nprocshared=4
# opt freq B3LYP/6-31G(d) empiricaldispersion=gd3bj scf=xqc

CID_108570054_JID_9982_neutraal

0 1
C          0.98249        0.03360       -0.09254
C          1.49397        0.53990        1.24288
O          1.67343        1.96157        1.18758
C          2.86547        2.39373        0.69504
O          3.77138        1.64551        0.34819
N          2.92882        3.77152        0.61080
C          4.20889        4.39931        0.26129
C          4.00471        5.70439       -0.51824
N          3.06754        6.58179        0.18686
C          1.75782        5.96656        0.42514
C          1.91378        4.65086        1.20670
C          3.56248        7.67982        0.87848
O          4.76497        7.95390        0.88703
C          2.56301        8.55521        1.65482
O          1.43440        9.00703        0.91706
C          1.74975       10.02133       -0.04508
C          1.66023       11.42255        0.56384
O          2.84451       11.70479        1.31268
C          2.79085       12.98852        1.91930
H          0.06210        0.55539       -0.37479
H          0.77972       -1.04017       -0.04800
H          1.71005        0.21826       -0.88917
H          0.74970        0.34125        2.02103
H          2.41628        0.02944        1.54274
H          4.73100        4.59864        1.20500
H          4.82845        3.71135       -0.32317
H          3.56652        5.48884       -1.50023
H          4.96611        6.19896       -0.68744
H          1.31534        5.76552       -0.55777
H          1.07840        6.62497        0.96631
H          0.94309        4.14980        1.26606
H          2.24377        4.85952        2.23165
H          2.19464        7.95755        2.49640
H          3.10118        9.39894        2.09646
H          2.72810        9.83921       -0.50306
H          0.98937        9.93651       -0.82842
H          1.57318       12.16152       -0.24027
H          0.78873       11.49222        1.22447
H          2.69288       13.76858        1.15830
H          1.95697       13.04311        2.62563
H          3.72328       13.14937        2.46694

--Link1--
%chk=JID_9982.chk
%mem=8GB
%nprocshared=4
# B3LYP/6-311++G(d,p) empiricaldispersion=gd3bj scf=xqc pop=npa geom=check

CID_108570054_JID_9982_Energie_neutraal

0 1

--Link1--
%chk=JID_9982.chk
%mem=8GB
%nprocshared=4
# B3LYP/6-311++G(d,p) empiricaldispersion=gd3bj scf=xqc pop=npa geom=check

CID_108570054_JID_9982_Energie_kation

1 2

--Link1--
%chk=JID_9982.chk
%mem=8GB
%nprocshared=4
# B3LYP/6-311++G(d,p) empiricaldispersion=gd3bj scf=xqc pop=npa geom=check

CID_108570054_JID_9982_Energie_anion

-1 2
