%chk=JID_3465.chk
%mem=8GB
%nprocshared=4
# opt freq B3LYP/6-31G(d) empiricaldispersion=gd3bj scf=xqc

CID_65272308_JID_3465_neutraal

0 1
C          1.06501       -0.06173        0.04430
C          0.09050        0.59555       -0.92028
C          0.70936        0.86555       -2.24806
N          0.62599       -0.03323       -3.23082
S          1.45289        0.61433       -4.52598
C          1.84537        2.08065       -3.69331
N          1.37984        2.06315       -2.46475
N          2.55276        3.12539       -4.18131
C          2.60776        3.45645       -5.59710
C          1.26965        3.96995       -6.18263
N          0.96598        5.39986       -5.94675
C         -0.13874        5.81597       -6.81966
C          0.60331        5.66917       -4.55399
H          1.41627       -1.02422       -0.34298
H          0.58229       -0.23899        1.01049
H          1.94234        0.57216        0.21260
H         -0.79099       -0.04538       -1.04123
H         -0.26429        1.53918       -0.48928
H          2.61128        3.92198       -3.55720
H          3.38525        4.21538       -5.74750
H          2.93898        2.58139       -6.16985
H          1.36094        3.83015       -7.26851
H          0.43107        3.33966       -5.86151
H         -1.05871        5.25534       -6.61733
H         -0.34914        6.88412       -6.69380
H          0.12750        5.67667       -7.87347
H         -0.19127        5.00631       -4.19352
H          1.47110        5.57844       -3.89751
H          0.26022        6.70414       -4.43670

--Link1--
%chk=JID_3465.chk
%mem=8GB
%nprocshared=4
# B3LYP/6-311++G(d,p) empiricaldispersion=gd3bj scf=xqc pop=npa geom=check

CID_65272308_JID_3465_Energie_neutraal

0 1

--Link1--
%chk=JID_3465.chk
%mem=8GB
%nprocshared=4
# B3LYP/6-311++G(d,p) empiricaldispersion=gd3bj scf=xqc pop=npa geom=check

CID_65272308_JID_3465_Energie_kation

1 2

--Link1--
%chk=JID_3465.chk
%mem=8GB
%nprocshared=4
# B3LYP/6-311++G(d,p) empiricaldispersion=gd3bj scf=xqc pop=npa geom=check

CID_65272308_JID_3465_Energie_anion

-1 2
