%chk=JID_1062.chk
%mem=8GB
%nprocshared=4
# opt freq B3LYP/6-31G(d) empiricaldispersion=gd3bj scf=xqc

CID_88640129_JID_1062_neutraal

0 1
C         -1.25000        1.46100       -0.15800
C         -2.30556        0.45504       -0.13937
C         -2.39766       -0.82969       -0.06367
N         -1.18074       -1.45081       -0.00167
C          0.04966       -0.73653        0.02421
C          0.06464        0.68754       -0.05965
C          1.28422        1.36948       -0.02754
C          2.48016        0.65247        0.06105
C          2.48417       -0.74674        0.06971
C          1.26298       -1.43002        0.10138
N          3.68524       -1.44203        0.27483
H         -1.26916        2.03629       -1.08903
H         -1.34096        2.14223        0.69402
H         -3.30751       -1.41399       -0.02403
H         -1.15666       -2.44998        0.15056
H          1.31014        2.45539       -0.05780
H          3.41762        1.19969        0.11832
H          1.25759       -2.51227        0.18401
H          3.65694       -2.40492       -0.04536
H          4.50316       -0.94831       -0.06872

--Link1--
%chk=JID_1062.chk
%mem=8GB
%nprocshared=4
# B3LYP/6-311++G(d,p) empiricaldispersion=gd3bj scf=xqc pop=npa geom=check

CID_88640129_JID_1062_Energie_neutraal

0 1

--Link1--
%chk=JID_1062.chk
%mem=8GB
%nprocshared=4
# B3LYP/6-311++G(d,p) empiricaldispersion=gd3bj scf=xqc pop=npa geom=check

CID_88640129_JID_1062_Energie_kation

1 2

--Link1--
%chk=JID_1062.chk
%mem=8GB
%nprocshared=4
# B3LYP/6-311++G(d,p) empiricaldispersion=gd3bj scf=xqc pop=npa geom=check

CID_88640129_JID_1062_Energie_anion

-1 2
