%chk=JID_9074.chk
%mem=8GB
%nprocshared=4
# opt freq B3LYP/6-31G(d) empiricaldispersion=gd3bj scf=xqc

CID_51080621_JID_9074_neutraal

0 1
C          0.95079       -0.07700        0.04061
C          0.52985        0.94486       -1.00999
C          1.49188        0.97321       -2.19435
N         -0.91222        0.72620       -1.37879
C         -1.67516        1.99525       -1.35955
S         -1.26363       -0.28322       -2.70907
O         -1.10819        0.54023       -3.88982
O         -0.51136       -1.50635       -2.55880
N         -2.89630       -0.56262       -2.45231
C         -3.84160       -0.10616       -3.49760
C         -3.87751       -0.92868       -4.76965
C         -3.29590       -0.44036       -5.93942
C         -3.36767       -1.20248       -7.10136
C         -4.01178       -2.43157       -7.06837
C         -4.56432       -2.84707       -5.86907
N         -4.52215       -2.12406       -4.72791
C         -3.41858       -1.60324       -1.55256
C         -3.15057       -3.06509       -1.76890
C         -2.64478       -2.37996       -0.52971
H          0.93552       -1.09689       -0.35595
H          0.27515       -0.04759        0.90240
H          1.96490        0.12872        0.39899
H          0.61301        1.92926       -0.53000
H          1.59649       -0.00446       -2.67398
H          1.16731        1.69503       -2.95050
H          2.49228        1.27202       -1.86192
H         -1.34548        2.66091       -2.16289
H         -2.74929        1.81730       -1.45034
H         -1.53015        2.50554       -0.40169
H         -4.85801       -0.09467       -3.08171
H         -3.64342        0.94777       -3.73048
H         -2.78583        0.51861       -5.95167
H         -2.91747       -0.83971       -8.02094
H         -4.07788       -3.05221       -7.95445
H         -5.07335       -3.80335       -5.79170
H         -4.43132       -1.35198       -1.23777
H         -3.98847       -3.74609       -1.68136
H         -2.42994       -3.35278       -2.52535
H         -1.57842       -2.23261       -0.42797
H         -3.13820       -2.61140        0.40763

--Link1--
%chk=JID_9074.chk
%mem=8GB
%nprocshared=4
# B3LYP/6-311++G(d,p) empiricaldispersion=gd3bj scf=xqc pop=npa geom=check

CID_51080621_JID_9074_Energie_neutraal

0 1

--Link1--
%chk=JID_9074.chk
%mem=8GB
%nprocshared=4
# B3LYP/6-311++G(d,p) empiricaldispersion=gd3bj scf=xqc pop=npa geom=check

CID_51080621_JID_9074_Energie_kation

1 2

--Link1--
%chk=JID_9074.chk
%mem=8GB
%nprocshared=4
# B3LYP/6-311++G(d,p) empiricaldispersion=gd3bj scf=xqc pop=npa geom=check

CID_51080621_JID_9074_Energie_anion

-1 2
