%chk=JID_7776.chk
%mem=8GB
%nprocshared=4
# opt freq B3LYP/6-31G(d) empiricaldispersion=gd3bj scf=xqc

CID_65528194_JID_7776_neutraal

0 1
C          0.98088        0.09398       -0.02832
S         -0.54921        0.53725       -0.89478
C         -0.59048        2.32947       -0.53270
C         -1.50590        2.67105        0.63622
C         -0.91612        2.27214        1.98028
O          0.27921        2.45089        2.20647
N         -1.83952        1.82867        2.93879
C         -2.59776        0.62021        2.55552
C         -1.83470       -0.66629        2.94768
N         -1.42054       -0.70276        4.36021
C         -0.67228        0.52404        4.71203
C         -1.47228        1.83619        4.41123
C         -2.79396        1.88932        5.24953
C         -2.59442        2.08968        6.75050
C         -1.77633        3.33494        7.04426
C         -0.44823        3.29562        6.30955
C         -0.63015        3.08896        4.80509
H          1.21182       -0.95429       -0.23694
H          0.87036        0.20665        1.05080
H          1.81432        0.70555       -0.38323
H          0.42608        2.70811       -0.38444
H         -0.98125        2.81783       -1.43217
H         -1.61118        3.76355        0.68022
H         -2.51764        2.29360        0.47294
H         -2.78246        0.58107        1.48042
H         -3.58064        0.65508        3.03471
H         -2.47216       -1.53384        2.74541
H         -0.94470       -0.77070        2.31689
H         -0.81810       -1.51170        4.51054
H          0.27636        0.52723        4.15998
H         -0.41326        0.46124        5.77334
H         -3.41693        2.71093        4.86897
H         -3.39027        0.97959        5.12175
H         -2.10563        1.21049        7.18568
H         -3.57271        2.17524        7.23775
H         -1.60215        3.41968        8.12273
H         -2.33894        4.22609        6.74010
H          0.17986        2.49758        6.72245
H          0.09075        4.23456        6.48263
H          0.37735        3.03779        4.38196
H         -1.10298        3.98595        4.38293

--Link1--
%chk=JID_7776.chk
%mem=8GB
%nprocshared=4
# B3LYP/6-311++G(d,p) empiricaldispersion=gd3bj scf=xqc pop=npa geom=check

CID_65528194_JID_7776_Energie_neutraal

0 1

--Link1--
%chk=JID_7776.chk
%mem=8GB
%nprocshared=4
# B3LYP/6-311++G(d,p) empiricaldispersion=gd3bj scf=xqc pop=npa geom=check

CID_65528194_JID_7776_Energie_kation

1 2

--Link1--
%chk=JID_7776.chk
%mem=8GB
%nprocshared=4
# B3LYP/6-311++G(d,p) empiricaldispersion=gd3bj scf=xqc pop=npa geom=check

CID_65528194_JID_7776_Energie_anion

-1 2
