%chk=JID_5307.chk
%mem=8GB
%nprocshared=4
# opt freq B3LYP/6-31G(d) empiricaldispersion=gd3bj scf=xqc

CID_65222240_JID_5307_neutraal

0 1
C          1.00247       -0.09949        0.00974
C          0.63352        0.31952       -1.40509
C          0.95722       -0.73979       -2.46441
C          0.29002       -2.11528       -2.25911
C         -1.23438       -2.05761       -2.09774
N         -1.88256       -1.45035       -3.28097
S         -3.57701       -1.48803       -3.29803
O         -4.00875       -0.97868       -2.01537
O         -3.97176       -0.84133       -4.52882
C         -4.09244       -3.22528       -3.35190
C         -4.73262       -3.68496       -4.63469
C         -3.31477       -4.07401       -4.32466
C          0.62798       -3.12337       -3.34051
O          0.18765       -4.26157       -3.40770
O          1.51874       -2.69735       -4.25315
H          0.39194       -0.93826        0.35584
H          0.84096        0.73364        0.70139
H          2.05614       -0.38968        0.07040
H         -0.42808        0.58686       -1.44308
H          1.18785        1.23298       -1.65315
H          0.68916       -0.33502       -3.44871
H          2.04687       -0.87646       -2.48891
H          0.71200       -2.54751       -1.34194
H         -1.62614       -3.07026       -1.95039
H         -1.49188       -1.47468       -1.20781
H         -1.59618       -0.48806       -3.47276
H         -4.41661       -3.66338       -2.41987
H         -5.49726       -4.45053       -4.56812
H         -4.89807       -2.97789       -5.43994
H         -2.52694       -3.62218       -4.91739
H         -3.11307       -5.10138       -4.04333
H          1.62110       -3.45544       -4.86636

--Link1--
%chk=JID_5307.chk
%mem=8GB
%nprocshared=4
# B3LYP/6-311++G(d,p) empiricaldispersion=gd3bj scf=xqc pop=npa geom=check

CID_65222240_JID_5307_Energie_neutraal

0 1

--Link1--
%chk=JID_5307.chk
%mem=8GB
%nprocshared=4
# B3LYP/6-311++G(d,p) empiricaldispersion=gd3bj scf=xqc pop=npa geom=check

CID_65222240_JID_5307_Energie_kation

1 2

--Link1--
%chk=JID_5307.chk
%mem=8GB
%nprocshared=4
# B3LYP/6-311++G(d,p) empiricaldispersion=gd3bj scf=xqc pop=npa geom=check

CID_65222240_JID_5307_Energie_anion

-1 2
