%chk=JID_10458.chk
%mem=8GB
%nprocshared=4
# opt freq B3LYP/6-31G(d) empiricaldispersion=gd3bj scf=xqc

CID_103002427_JID_10458_neutraal

0 1
C          0.90735        0.03306        0.01800
C          1.25724        0.79242       -1.25341
C          1.91324       -0.08824       -2.32146
N          0.99568       -1.06952       -2.90814
C          1.01926       -2.36518       -2.44584
C          0.20446       -3.31924       -2.90283
C         -0.76212       -2.93509       -3.98919
O         -1.50960       -3.80471       -4.44398
N         -0.73222       -1.61907       -4.41780
C          0.12050       -0.64814       -3.90570
O          0.12396        0.50915       -4.32906
C         -1.62086       -1.23463       -5.51229
C         -0.89431       -1.03853       -6.85460
C         -0.13675       -2.25082       -7.29578
C         -0.60607       -3.43967       -7.81943
C          0.53391       -4.23704       -8.00121
N          1.65198       -3.61105       -7.63423
N          1.22853       -2.39728       -7.22740
C          2.21799       -1.45851       -6.75218
N          0.19345       -4.63504       -2.46708
H          0.13221       -0.71684       -0.16518
H          0.52670        0.72511        0.77604
H          1.78745       -0.47016        0.43061
H          0.35247        1.26738       -1.64944
H          1.95379        1.59825       -0.99326
H          2.28013        0.55769       -3.12893
H          2.79301       -0.60043       -1.91272
H          1.73282       -2.59028       -1.65887
H         -2.41731       -1.97816       -5.63250
H         -2.11233       -0.29254       -5.23879
H         -1.64410       -0.79961       -7.61992
H         -0.24120       -0.16305       -6.80393
H         -1.63556       -3.70414       -8.01559
H          0.59600       -5.24934       -8.37853
H          2.38264       -1.64871       -5.68939
H          3.14681       -1.61281       -7.30865
H          1.87623       -0.43605       -6.91473
H          1.11907       -4.99885       -2.26227
H         -0.31017       -5.22029       -3.14131

--Link1--
%chk=JID_10458.chk
%mem=8GB
%nprocshared=4
# B3LYP/6-311++G(d,p) empiricaldispersion=gd3bj scf=xqc pop=npa geom=check

CID_103002427_JID_10458_Energie_neutraal

0 1

--Link1--
%chk=JID_10458.chk
%mem=8GB
%nprocshared=4
# B3LYP/6-311++G(d,p) empiricaldispersion=gd3bj scf=xqc pop=npa geom=check

CID_103002427_JID_10458_Energie_kation

1 2

--Link1--
%chk=JID_10458.chk
%mem=8GB
%nprocshared=4
# B3LYP/6-311++G(d,p) empiricaldispersion=gd3bj scf=xqc pop=npa geom=check

CID_103002427_JID_10458_Energie_anion

-1 2
