%chk=JID_10137.chk
%mem=8GB
%nprocshared=4
# opt freq B3LYP/6-31G(d) empiricaldispersion=gd3bj scf=xqc

CID_140659025_JID_10137_neutraal

0 1
C          0.96146        0.06894        0.06134
C          0.34471        1.17737        0.93036
C          1.01059        2.50820        0.56372
C         -1.16812        1.20203        0.68157
O          0.64058        0.78703        2.29775
C          0.22825        1.54783        3.34757
O         -0.33240        2.62668        3.21718
N          0.50997        0.95253        4.57441
C          1.20074       -0.34284        4.66479
C          2.70012       -0.19830        4.89697
C          3.01041       -0.34546        6.36134
O          2.88265       -1.39264        6.98225
O          3.40505        0.83960        6.89870
C          3.65657        0.78535        8.30447
C          0.21098        1.65087        5.84227
C          1.00499        2.96508        6.02841
C          0.00970        4.07613        5.87619
C         -0.94438        4.43459        6.98276
C         -1.37064        3.50192        5.88147
C         -1.28170        2.01145        6.02963
H          0.79193        0.24561       -1.00599
H          0.54136       -0.90955        0.32204
H          2.04177       -0.00351        0.23338
H          0.93863        2.70555       -0.51144
H          0.54871        3.35551        1.07886
H          2.06870        2.50487        0.84800
H         -1.63240        0.26976        1.02299
H         -1.66001        2.01354        1.22618
H         -1.39569        1.33522       -0.38148
H          0.70812       -0.93198        5.44763
H          1.04743       -0.90124        3.73556
H          3.24496       -1.00098        4.38603
H          3.09382        0.74758        4.50919
H          2.76176        0.45715        8.84344
H          4.50155        0.12282        8.51556
H          3.91071        1.79354        8.64292
H          0.48693        0.96038        6.64823
H          1.43988        3.00442        7.03383
H          1.82396        3.06094        5.30791
H          0.26325        4.80446        5.11842
H         -1.36062        5.43611        6.98363
H         -0.77265        4.02997        7.97312
H         -2.07204        3.83484        5.12887
H         -1.92648        1.49624        5.31016
H         -1.61397        1.72774        7.03512

--Link1--
%chk=JID_10137.chk
%mem=8GB
%nprocshared=4
# B3LYP/6-311++G(d,p) empiricaldispersion=gd3bj scf=xqc pop=npa geom=check

CID_140659025_JID_10137_Energie_neutraal

0 1

--Link1--
%chk=JID_10137.chk
%mem=8GB
%nprocshared=4
# B3LYP/6-311++G(d,p) empiricaldispersion=gd3bj scf=xqc pop=npa geom=check

CID_140659025_JID_10137_Energie_kation

1 2

--Link1--
%chk=JID_10137.chk
%mem=8GB
%nprocshared=4
# B3LYP/6-311++G(d,p) empiricaldispersion=gd3bj scf=xqc pop=npa geom=check

CID_140659025_JID_10137_Energie_anion

-1 2
