%chk=JID_1398.chk
%mem=8GB
%nprocshared=4
# opt freq B3LYP/6-31G(d) empiricaldispersion=gd3bj scf=xqc

CID_144633762_JID_1398_neutraal

0 1
C          1.04994       -0.06551        0.05669
C         -1.16032        1.44040       -2.62836
C         -1.04977        0.14778       -3.40506
C          1.16032       -0.58563        4.24098
C         -0.06980       -1.41597        3.90085
C         -1.18896       -0.55573        3.26546
C         -1.87265       -1.45311        2.27896
C         -2.32775       -2.84307        2.62589
C         -0.95823       -2.61412        2.04470
N          0.23718       -2.46134        2.89604
C          0.68081       -3.71258        3.49676
H          0.13418       -0.59408       -0.21557
H          0.80168        0.79683        0.67893
H          1.55642        0.27402       -0.84939
H          1.70849       -0.73778        0.61057
H         -1.50237        1.24748       -1.60719
H         -1.87348        2.11726       -3.10814
H         -0.18951        1.94238       -2.57747
H         -0.33282       -0.52763       -2.92904
H         -2.01943       -0.35673       -3.45148
H         -0.71282        0.34164       -4.42774
H          0.89924        0.21853        4.93706
H          1.59602       -0.12626        3.34683
H          1.93356       -1.19962        4.71417
H         -0.47282       -1.87030        4.81633
H         -1.89107       -0.19548        4.02413
H         -0.77515        0.31073        2.73697
H         -2.30962       -0.94243        1.43378
H         -3.07170       -3.30475        1.98651
H         -2.42043       -3.11674        3.66946
H         -0.77953       -2.93408        1.02339
H         -0.07782       -4.15109        4.15445
H          0.91591       -4.44413        2.71587
H          1.59667       -3.56243        4.07768

--Link1--
%chk=JID_1398.chk
%mem=8GB
%nprocshared=4
# B3LYP/6-311++G(d,p) empiricaldispersion=gd3bj scf=xqc pop=npa geom=check

CID_144633762_JID_1398_Energie_neutraal

0 1

--Link1--
%chk=JID_1398.chk
%mem=8GB
%nprocshared=4
# B3LYP/6-311++G(d,p) empiricaldispersion=gd3bj scf=xqc pop=npa geom=check

CID_144633762_JID_1398_Energie_kation

1 2

--Link1--
%chk=JID_1398.chk
%mem=8GB
%nprocshared=4
# B3LYP/6-311++G(d,p) empiricaldispersion=gd3bj scf=xqc pop=npa geom=check

CID_144633762_JID_1398_Energie_anion

-1 2
