%chk=JID_10095.chk
%mem=8GB
%nprocshared=4
# opt freq B3LYP/6-31G(d) empiricaldispersion=gd3bj scf=xqc

CID_82462591_JID_10095_neutraal

0 1
C          1.08502       -0.05022        0.01583
C          0.18422        1.17511       -0.06810
C         -0.15632        1.56725       -1.50593
O         -1.05362        0.61645       -2.08982
C         -0.48462       -0.25930       -2.97052
C          0.35262        0.12734       -4.01616
C          0.93621       -0.83568       -4.86208
C          0.63546       -2.18442       -4.65529
C         -0.26061       -2.56071       -3.65285
C         -0.82581       -1.59966       -2.81714
O          1.16190       -3.21755       -5.37658
C          2.24271       -2.92416       -6.28391
C          2.05340       -1.54755       -6.95625
C          1.86009       -0.39478       -5.97179
N          3.13689        0.10676       -5.43933
C          3.79684        1.03071       -6.35287
C          2.09380       -4.02192       -7.38576
C          3.11498       -3.98149       -8.51556
C          3.62278       -3.11774       -5.58464
C          3.68926       -2.91415       -4.07504
H          0.56449       -0.95348       -0.31213
H          1.39974       -0.21193        1.05194
H          1.98424        0.07700       -0.59507
H         -0.73637        0.97408        0.49167
H          0.69193        2.01674        0.41675
H         -0.68919        2.52481       -1.49051
H          0.76327        1.72956       -2.07871
H          0.55336        1.18032       -4.19204
H         -0.50358       -3.61044       -3.51160
H         -1.50888       -1.90032       -2.02784
H          2.87006       -1.33254       -7.65375
H          1.14146       -1.59144       -7.57104
H          1.34734        0.41932       -6.50368
H          2.96545        0.59131       -4.55921
H          3.17886        1.91417       -6.54403
H          4.73487        1.37222       -5.90393
H          4.04808        0.55660       -7.30572
H          2.13312       -5.01175       -6.91006
H          1.08588       -3.96474       -7.81922
H          4.14036       -4.04451       -8.14090
H          2.95568       -4.83115       -9.18782
H          3.01868       -3.07101       -9.11341
H          3.95808       -4.15176       -5.74252
H          4.37945       -2.49283       -6.07436
H          3.03396       -3.61745       -3.55160
H          4.70995       -3.10197       -3.72423
H          3.42680       -1.90073       -3.77058

--Link1--
%chk=JID_10095.chk
%mem=8GB
%nprocshared=4
# B3LYP/6-311++G(d,p) empiricaldispersion=gd3bj scf=xqc pop=npa geom=check

CID_82462591_JID_10095_Energie_neutraal

0 1

--Link1--
%chk=JID_10095.chk
%mem=8GB
%nprocshared=4
# B3LYP/6-311++G(d,p) empiricaldispersion=gd3bj scf=xqc pop=npa geom=check

CID_82462591_JID_10095_Energie_kation

1 2

--Link1--
%chk=JID_10095.chk
%mem=8GB
%nprocshared=4
# B3LYP/6-311++G(d,p) empiricaldispersion=gd3bj scf=xqc pop=npa geom=check

CID_82462591_JID_10095_Energie_anion

-1 2
