%chk=JID_9306.chk
%mem=8GB
%nprocshared=4
# opt freq B3LYP/6-31G(d) empiricaldispersion=gd3bj scf=xqc

CID_105182287_JID_9306_neutraal

0 1
C          0.99991       -0.04246        0.09054
C          0.33946        1.29680       -0.20836
C          0.90763        1.99486       -1.44819
N          0.60732        1.24247       -2.66392
C          1.08193        1.88358       -3.90002
C          2.58343        1.97815       -3.96561
C          3.34034        3.12795       -4.12510
N          4.66466        2.83394       -4.09618
N          4.78105        1.53160       -3.90946
N          3.54358        0.99790       -3.85716
C          3.44141       -0.42611       -3.62198
C          3.98026       -1.29754       -4.76129
C          5.49045       -1.48731       -4.72647
C          0.40052        1.34475       -5.21965
C          0.44528       -0.18303       -5.40448
C         -0.72350       -0.59668       -6.29123
C         -1.96005        0.04875       -5.69923
S         -1.42757        1.70000       -5.18552
C          0.94726        2.06514       -6.46886
H          0.77892       -0.78469       -0.68210
H          0.63032       -0.43759        1.04233
H          2.08661        0.06406        0.16777
H         -0.74246        1.15397       -0.31768
H          0.48384        1.95604        0.65617
H          0.45884        2.99305       -1.51287
H          1.98792        2.12200       -1.31599
H          0.90455        0.28043       -2.58454
H          0.74042        2.92971       -3.83384
H          2.99228        4.14434       -4.24691
H          3.95588       -0.63866       -2.67746
H          2.39299       -0.67291       -3.47072
H          3.51981       -2.28969       -4.67929
H          3.69054       -0.88750       -5.73525
H          5.81706       -1.87058       -3.75464
H          5.79351       -2.20897       -5.49214
H          6.02220       -0.55386       -4.92777
H          1.38788       -0.50406       -5.85609
H          0.34724       -0.71165       -4.44998
H         -0.82959       -1.68647       -6.31866
H         -0.56830       -0.26701       -7.32515
H         -2.30770       -0.49964       -4.81815
H         -2.77819        0.10551       -6.42211
H          0.90648        3.15462       -6.35217
H          1.99183        1.79084       -6.65484
H          0.39480        1.81247       -7.38084

--Link1--
%chk=JID_9306.chk
%mem=8GB
%nprocshared=4
# B3LYP/6-311++G(d,p) empiricaldispersion=gd3bj scf=xqc pop=npa geom=check

CID_105182287_JID_9306_Energie_neutraal

0 1

--Link1--
%chk=JID_9306.chk
%mem=8GB
%nprocshared=4
# B3LYP/6-311++G(d,p) empiricaldispersion=gd3bj scf=xqc pop=npa geom=check

CID_105182287_JID_9306_Energie_kation

1 2

--Link1--
%chk=JID_9306.chk
%mem=8GB
%nprocshared=4
# B3LYP/6-311++G(d,p) empiricaldispersion=gd3bj scf=xqc pop=npa geom=check

CID_105182287_JID_9306_Energie_anion

-1 2
