%chk=JID_8647.chk
%mem=8GB
%nprocshared=4
# opt freq B3LYP/6-31G(d) empiricaldispersion=gd3bj scf=xqc

CID_62520439_JID_8647_neutraal

0 1
C         -1.43100        0.32400       -0.23100
C         -1.27155       -1.12491        0.21011
C          0.19043       -1.56942        0.15456
C          1.12865       -0.67184        0.99308
C          0.94017        0.79868        0.51779
C         -0.51960        1.26004        0.55170
C          2.61184       -1.09009        0.77704
O          3.52793       -0.29261        1.52918
N          0.77856       -0.71126        2.42403
C          0.78523       -1.75253        3.35355
C          0.98680       -3.07518        3.14069
N          0.96666       -4.06746        4.11337
C          0.73967       -3.70697        5.34607
C          0.52100       -2.34536        5.68726
N          0.27930       -1.79637        6.85112
N          0.15486       -0.45188        6.58447
N          0.31799       -0.19558        5.28917
N          0.54860       -1.39687        4.69990
H         -2.47445        0.63560       -0.10875
H         -1.19933        0.40448       -1.30037
H         -1.66347       -1.24787        1.22665
H         -1.87372       -1.77089       -0.43919
H          0.51742       -1.54809       -0.89424
H          0.24796       -2.61723        0.45876
H          1.31440        0.90029       -0.50970
H          1.53065        1.48704        1.13524
H         -0.59117        2.27167        0.13568
H         -0.86618        1.32415        1.59012
H          2.77612       -2.12986        1.07330
H          2.88916       -1.01263       -0.28072
H          3.55658        0.59211        1.12908
H          0.91124        0.19023        2.89289
H          1.19314       -3.45419        2.14724
H          0.71585       -4.46984        6.14034

--Link1--
%chk=JID_8647.chk
%mem=8GB
%nprocshared=4
# B3LYP/6-311++G(d,p) empiricaldispersion=gd3bj scf=xqc pop=npa geom=check

CID_62520439_JID_8647_Energie_neutraal

0 1

--Link1--
%chk=JID_8647.chk
%mem=8GB
%nprocshared=4
# B3LYP/6-311++G(d,p) empiricaldispersion=gd3bj scf=xqc pop=npa geom=check

CID_62520439_JID_8647_Energie_kation

1 2

--Link1--
%chk=JID_8647.chk
%mem=8GB
%nprocshared=4
# B3LYP/6-311++G(d,p) empiricaldispersion=gd3bj scf=xqc pop=npa geom=check

CID_62520439_JID_8647_Energie_anion

-1 2
