%chk=JID_4593.chk
%mem=8GB
%nprocshared=4
# opt freq B3LYP/6-31G(d) empiricaldispersion=gd3bj scf=xqc

CID_82075954_JID_4593_neutraal

0 1
C          1.85400        1.50000       -0.02200
C          0.51642        0.81319        0.02336
C         -0.64761        1.58920        0.13933
C         -1.92998        1.00800        0.18189
C         -2.03470       -0.38935        0.09057
C         -0.87459       -1.17030        0.01064
C          0.40305       -0.58562       -0.01111
C          1.61227       -1.47478       -0.11645
O         -3.29587       -0.92231        0.13027
C         -3.46626       -2.19358       -0.48687
C         -3.13477        1.93744        0.31928
C         -4.04324        1.88234       -0.91224
C         -3.93239        1.70156        1.61413
O         -3.13819        1.99981        2.76233
H          2.38946        1.34421        0.91973
H          2.45605        1.11702       -0.85223
H          1.74579        2.57905       -0.17550
H         -0.55328        2.67327        0.19656
H         -0.94327       -2.25366       -0.01898
H          1.37066       -2.50912        0.15103
H          1.99567       -1.46583       -1.14139
H          2.39998       -1.14721        0.56937
H         -4.54049       -2.36224       -0.60951
H         -3.00912       -2.22467       -1.48204
H         -3.07557       -2.99097        0.15273
H         -2.75080        2.96567        0.37718
H         -4.56305        0.92429       -1.00660
H         -4.80891        2.66396       -0.85618
H         -3.46870        2.04394       -1.83107
H         -4.79860        2.37123        1.64602
H         -4.30902        0.67994        1.71332
H         -2.39081        1.37451        2.74970

--Link1--
%chk=JID_4593.chk
%mem=8GB
%nprocshared=4
# B3LYP/6-311++G(d,p) empiricaldispersion=gd3bj scf=xqc pop=npa geom=check

CID_82075954_JID_4593_Energie_neutraal

0 1

--Link1--
%chk=JID_4593.chk
%mem=8GB
%nprocshared=4
# B3LYP/6-311++G(d,p) empiricaldispersion=gd3bj scf=xqc pop=npa geom=check

CID_82075954_JID_4593_Energie_kation

1 2

--Link1--
%chk=JID_4593.chk
%mem=8GB
%nprocshared=4
# B3LYP/6-311++G(d,p) empiricaldispersion=gd3bj scf=xqc pop=npa geom=check

CID_82075954_JID_4593_Energie_anion

-1 2
