%chk=JID_7467.chk
%mem=8GB
%nprocshared=4
# opt freq B3LYP/6-31G(d) empiricaldispersion=gd3bj scf=xqc

CID_117233803_JID_7467_neutraal

0 1
C         -2.13300       -0.01500        0.07600
N         -0.80034        0.01021       -0.49661
C         -0.01431       -1.18161       -0.17925
C          1.40176       -0.78875       -0.58450
C          1.44288        0.73715       -0.40892
C          0.01178        1.13968       -0.02312
O          2.02799        1.47567       -1.49235
C          1.52874        1.21108       -2.71800
C          0.27485        1.50736       -3.18334
N          0.23252        1.02805       -4.46320
N          1.42091        0.54715       -4.89129
C          2.21390        0.67595       -3.82150
C         -0.91343        0.99952       -5.34846
C         -2.13565        0.27991       -4.76611
C         -3.29293        0.86860       -5.55539
C         -2.94063        2.34572       -5.63546
C         -1.41799        2.39143       -5.76439
H         -2.70243       -0.86350       -0.31855
H         -2.11785       -0.09116        1.16907
H         -2.68288        0.89225       -0.19681
H         -0.04475       -1.41195        0.89354
H         -0.35834       -2.06052       -0.73355
H          1.61642       -1.11071       -1.60725
H          2.13625       -1.27716        0.06570
H          2.08779        0.95922        0.45107
H         -0.30193        2.09415       -0.45415
H         -0.05527        1.22112        1.07018
H         -0.58628        1.96743       -2.72407
H          3.24537        0.35852       -3.88452
H         -0.60165        0.46340       -6.25572
H         -2.06693       -0.80647       -4.88043
H         -2.27008        0.49245       -3.69879
H         -4.25836        0.69771       -5.07058
H         -3.32987        0.43112       -6.55991
H         -3.24655        2.85180       -4.71196
H         -3.44100        2.84514       -6.47053
H         -1.00622        3.20573       -5.15818
H         -1.13146        2.59116       -6.80370

--Link1--
%chk=JID_7467.chk
%mem=8GB
%nprocshared=4
# B3LYP/6-311++G(d,p) empiricaldispersion=gd3bj scf=xqc pop=npa geom=check

CID_117233803_JID_7467_Energie_neutraal

0 1

--Link1--
%chk=JID_7467.chk
%mem=8GB
%nprocshared=4
# B3LYP/6-311++G(d,p) empiricaldispersion=gd3bj scf=xqc pop=npa geom=check

CID_117233803_JID_7467_Energie_kation

1 2

--Link1--
%chk=JID_7467.chk
%mem=8GB
%nprocshared=4
# B3LYP/6-311++G(d,p) empiricaldispersion=gd3bj scf=xqc pop=npa geom=check

CID_117233803_JID_7467_Energie_anion

-1 2
