%chk=JID_3727.chk
%mem=8GB
%nprocshared=4
# opt freq B3LYP/6-31G(d) empiricaldispersion=gd3bj scf=xqc

CID_61772034_JID_3727_neutraal

0 1
C          0.91313       -0.01985       -0.04538
C          1.12234        0.87738       -1.25260
O          2.32812        1.63460       -1.18716
C          2.42072        2.59335       -0.12912
C          1.40895        3.73710       -0.24556
O          0.15347        3.32334        0.30627
C         -0.83833        4.36284        0.31719
C         -1.39982        4.65886       -1.07946
O         -2.47606        5.59692       -1.01376
C         -3.58181        5.07719       -0.27257
C         -3.17903        4.82057        1.17353
C         -1.97599        3.88954        1.24002
O         -2.38736        2.56776        0.86419
H          1.81175       -0.61073        0.15854
H          0.07268       -0.69956       -0.21455
H          0.69556        0.56318        0.85422
H          1.20694        0.24430       -2.14270
H          0.26187        1.53096       -1.42262
H          2.35402        2.08997        0.84044
H          3.42768        3.01704       -0.20722
H          1.77152        4.59735        0.32735
H          1.28243        4.01691       -1.29550
H         -0.41649        5.28065        0.74738
H         -1.72642        3.74323       -1.58791
H         -0.62548        5.10181       -1.71328
H         -3.95582        4.16874       -0.75910
H         -4.38325        5.82207       -0.30704
H         -4.02933        4.39455        1.71711
H         -2.91189        5.77402        1.64464
H         -1.61225        3.81376        2.27098
H         -1.55427        2.06854        0.74998

--Link1--
%chk=JID_3727.chk
%mem=8GB
%nprocshared=4
# B3LYP/6-311++G(d,p) empiricaldispersion=gd3bj scf=xqc pop=npa geom=check

CID_61772034_JID_3727_Energie_neutraal

0 1

--Link1--
%chk=JID_3727.chk
%mem=8GB
%nprocshared=4
# B3LYP/6-311++G(d,p) empiricaldispersion=gd3bj scf=xqc pop=npa geom=check

CID_61772034_JID_3727_Energie_kation

1 2

--Link1--
%chk=JID_3727.chk
%mem=8GB
%nprocshared=4
# B3LYP/6-311++G(d,p) empiricaldispersion=gd3bj scf=xqc pop=npa geom=check

CID_61772034_JID_3727_Energie_anion

-1 2
