%chk=JID_8982.chk
%mem=8GB
%nprocshared=4
# opt freq B3LYP/6-31G(d) empiricaldispersion=gd3bj scf=xqc

CID_113841552_JID_8982_neutraal

0 1
C          2.34700       -0.19300        0.01200
C          0.87813       -0.43353        0.15478
C          0.17944       -1.62466        0.27592
C         -1.24119       -1.36323        0.34365
C         -1.58203       -0.02459        0.29849
S         -0.15483        0.92747        0.18363
C         -2.86096        0.68612        0.35046
O         -2.94623        1.91383        0.46916
N         -4.07925        0.01199        0.27155
N         -4.31577       -1.33424       -0.02935
C          0.78982       -3.00325        0.26638
S          0.02064       -4.15862        1.43856
C          0.63338       -3.51225        3.03881
C          2.13322       -3.63669        3.35124
C          2.92753       -2.35199        3.18523
C          4.33377       -2.87794        3.03886
C          4.12016       -4.14714        2.24204
O          2.81232       -4.63562        2.57315
H          2.55116        0.51253       -0.80099
H          2.75823        0.22149        0.93825
H          2.89033       -1.11318       -0.21968
H         -1.95700       -2.16668        0.43556
H         -4.87790        0.64546        0.28491
H         -3.73376       -1.62475       -0.81761
H         -4.07020       -1.90960        0.77884
H          0.64971       -3.42312       -0.73663
H          1.86638       -2.98164        0.44204
H          0.27996       -2.48627        3.18957
H          0.09935       -4.11333        3.78478
H          2.22910       -3.94943        4.40012
H          2.63726       -1.82030        2.27823
H          2.80964       -1.66824        4.03070
H          5.01663       -2.17747        2.55094
H          4.74300       -3.12235        4.02625
H          4.13823       -3.94550        1.16575
H          4.86768       -4.91370        2.46432

--Link1--
%chk=JID_8982.chk
%mem=8GB
%nprocshared=4
# B3LYP/6-311++G(d,p) empiricaldispersion=gd3bj scf=xqc pop=npa geom=check

CID_113841552_JID_8982_Energie_neutraal

0 1

--Link1--
%chk=JID_8982.chk
%mem=8GB
%nprocshared=4
# B3LYP/6-311++G(d,p) empiricaldispersion=gd3bj scf=xqc pop=npa geom=check

CID_113841552_JID_8982_Energie_kation

1 2

--Link1--
%chk=JID_8982.chk
%mem=8GB
%nprocshared=4
# B3LYP/6-311++G(d,p) empiricaldispersion=gd3bj scf=xqc pop=npa geom=check

CID_113841552_JID_8982_Energie_anion

-1 2
