%chk=JID_8515.chk
%mem=8GB
%nprocshared=4
# opt freq B3LYP/6-31G(d) empiricaldispersion=gd3bj scf=xqc

CID_112682115_JID_8515_neutraal

0 1
C         -2.54400       -0.01100       -0.02600
C         -1.43306       -0.81513        0.58777
C         -0.09398       -0.38794        0.55847
C          0.84819       -1.21581        1.17764
N          0.57387       -2.39588        1.78360
C         -0.71617       -2.77874        1.77835
C         -1.73726       -2.03743        1.20415
N          0.29313        0.85771        0.01249
C          0.26830        1.97209        0.98011
C          1.57909        2.11512        1.76664
C          2.77992        2.69939        0.98888
C          2.36618        3.97978        0.22255
C          1.03676        3.93933       -0.56983
C         -0.08739        3.29229        0.27245
C          1.19691        3.25280       -1.93812
C          0.62172        5.40106       -0.87486
C          3.43001        1.65078        0.06936
C          3.86825        3.09584        2.01862
H         -2.60130        0.97962        0.43535
H         -2.38403        0.09655       -1.10354
H         -3.51665       -0.49421        0.11600
H          1.89874       -0.94020        1.18543
H         -0.91976       -3.72864        2.26407
H         -2.75503       -2.41180        1.24315
H         -0.32444        1.06370       -0.77120
H         -0.53640        1.78787        1.70616
H          1.36265        2.78924        2.60859
H          1.86304        1.16416        2.23028
H          3.18358        4.29576       -0.44007
H          2.27390        4.78528        0.96638
H         -0.98575        3.15728       -0.34473
H         -0.37587        4.00298        1.06053
H          0.27231        3.32903       -2.52270
H          1.99303        3.72736       -2.52350
H          1.43496        2.19352       -1.87079
H          0.47813        5.97769        0.04608
H          1.38674        5.91330       -1.46970
H         -0.31944        5.43727       -1.43551
H          4.25774        2.08824       -0.50058
H          3.84153        0.82049        0.65568
H          2.73956        1.20933       -0.64619
H          3.49620        3.84468        2.72722
H          4.19797        2.22802        2.60143
H          4.74785        3.51955        1.52049

--Link1--
%chk=JID_8515.chk
%mem=8GB
%nprocshared=4
# B3LYP/6-311++G(d,p) empiricaldispersion=gd3bj scf=xqc pop=npa geom=check

CID_112682115_JID_8515_Energie_neutraal

0 1

--Link1--
%chk=JID_8515.chk
%mem=8GB
%nprocshared=4
# B3LYP/6-311++G(d,p) empiricaldispersion=gd3bj scf=xqc pop=npa geom=check

CID_112682115_JID_8515_Energie_kation

1 2

--Link1--
%chk=JID_8515.chk
%mem=8GB
%nprocshared=4
# B3LYP/6-311++G(d,p) empiricaldispersion=gd3bj scf=xqc pop=npa geom=check

CID_112682115_JID_8515_Energie_anion

-1 2
