%chk=JID_7819.chk
%mem=8GB
%nprocshared=4
# opt freq B3LYP/6-31G(d) empiricaldispersion=gd3bj scf=xqc

CID_10220395_JID_7819_neutraal

0 1
C          0.99362       -0.04066        0.09114
C          0.47827        1.26195        0.71757
C          1.11251        2.44321       -0.03188
C         -1.07025        1.33352        0.69137
C         -1.85637        0.24836        1.47242
C         -1.26409       -0.36104        2.75592
C         -1.48702        0.38691        4.07307
C         -2.94819        0.61925        4.47718
C         -3.70029       -0.64827        4.77641
C         -4.22584       -0.93096        5.97809
C         -4.96984       -2.14160        6.24369
C         -5.52324       -2.40372        7.43707
C         -6.28953       -3.62077        7.73572
O         -6.80684       -3.85747        8.81267
O         -6.38014       -4.47823        6.70840
O         -1.58524        2.65511        0.89846
C         -1.40693        3.23535        2.17438
H          0.71276       -0.10703       -0.96584
H          0.59874       -0.92646        0.59481
H          2.08635       -0.09068        0.15052
H          0.82950        1.31477        1.75443
H          0.77090        2.48062       -1.07198
H          0.86756        3.39928        0.44007
H          2.20460        2.35680       -0.03816
H         -1.34648        1.15500       -0.35811
H         -2.88098        0.59168        1.64910
H         -1.95392       -0.60001        0.77895
H         -1.69456       -1.36491        2.86761
H         -0.18995       -0.53244        2.64219
H         -0.99345       -0.18399        4.87145
H         -0.96227        1.34517        4.04064
H         -2.95435        1.27323        5.35861
H         -3.48739        1.16405        3.69623
H         -3.83565       -1.34045        3.94798
H         -4.10289       -0.22644        6.79879
H         -5.07473       -2.85136        5.42505
H         -5.44101       -1.71484        8.27038
H         -6.91089       -5.21812        7.06925
H         -2.16788        2.86635        2.86143
H         -0.40426        3.06863        2.57356
H         -1.55597        4.31475        2.07699

--Link1--
%chk=JID_7819.chk
%mem=8GB
%nprocshared=4
# B3LYP/6-311++G(d,p) empiricaldispersion=gd3bj scf=xqc pop=npa geom=check

CID_10220395_JID_7819_Energie_neutraal

0 1

--Link1--
%chk=JID_7819.chk
%mem=8GB
%nprocshared=4
# B3LYP/6-311++G(d,p) empiricaldispersion=gd3bj scf=xqc pop=npa geom=check

CID_10220395_JID_7819_Energie_kation

1 2

--Link1--
%chk=JID_7819.chk
%mem=8GB
%nprocshared=4
# B3LYP/6-311++G(d,p) empiricaldispersion=gd3bj scf=xqc pop=npa geom=check

CID_10220395_JID_7819_Energie_anion

-1 2
