%chk=JID_9019.chk
%mem=8GB
%nprocshared=4
# opt freq B3LYP/6-31G(d) empiricaldispersion=gd3bj scf=xqc

CID_62554705_JID_9019_neutraal

0 1
C          1.06956        0.06541       -0.02972
C          0.54557       -0.66985       -1.25303
C          1.42438       -1.84802       -1.67849
C          1.60456       -2.94934       -0.62967
C          0.31181       -3.58985       -0.10813
C         -0.61876       -4.20275       -1.17749
C          0.08867       -5.29456       -1.98463
N         -1.79817       -4.71612       -0.46376
C         -2.89914       -5.15601       -1.33125
C         -3.01024       -6.69652       -1.48437
N         -3.91825       -7.36750       -0.53297
C         -3.51687       -7.16402        0.88369
C         -4.37449       -7.98005        1.88233
O         -4.41705       -9.38093        1.55256
C         -4.90101       -9.51057        0.22061
C         -3.94784       -8.82331       -0.76824
C         -4.49715       -9.32974       -2.09935
C         -4.85533      -10.79748       -1.81542
C         -4.91230      -10.94270       -0.28883
H          1.02901       -0.56284        0.86483
H          0.46057        0.95455        0.16296
H          2.10417        0.38998       -0.17905
H         -0.48048       -1.00475       -1.06645
H          0.49230        0.03857       -2.08864
H          1.00995       -2.28091       -2.59642
H          2.41763       -1.46741       -1.94880
H          2.25357       -3.72716       -1.04913
H          2.15760       -2.54507        0.22705
H          0.59621       -4.36692        0.61511
H         -0.24493       -2.83795        0.46661
H         -0.94094       -3.40502       -1.85674
H          0.42832       -6.11188       -1.33903
H         -0.56867       -5.71595       -2.75178
H          0.96074       -4.89711       -2.51248
H         -1.52419       -5.46786        0.16620
H         -3.83754       -4.76405       -0.92061
H         -2.81104       -4.70243       -2.32675
H         -3.40053       -6.86928       -2.49520
H         -2.01438       -7.15605       -1.45745
H         -3.60934       -6.10827        1.15792
H         -2.46790       -7.46168        1.01232
H         -3.95136       -7.89175        2.88816
H         -5.40007       -7.59266        1.91946
H         -5.91824       -9.09665        0.15902
H         -2.93173       -9.22459       -0.62620
H         -3.77526       -9.24051       -2.91695
H         -5.40108       -8.77789       -2.38560
H         -4.09900      -11.47292       -2.22992
H         -5.81501      -11.05319       -2.27686
H         -4.04123      -11.49709        0.08084
H         -5.80181      -11.48789        0.04208

--Link1--
%chk=JID_9019.chk
%mem=8GB
%nprocshared=4
# B3LYP/6-311++G(d,p) empiricaldispersion=gd3bj scf=xqc pop=npa geom=check

CID_62554705_JID_9019_Energie_neutraal

0 1

--Link1--
%chk=JID_9019.chk
%mem=8GB
%nprocshared=4
# B3LYP/6-311++G(d,p) empiricaldispersion=gd3bj scf=xqc pop=npa geom=check

CID_62554705_JID_9019_Energie_kation

1 2

--Link1--
%chk=JID_9019.chk
%mem=8GB
%nprocshared=4
# B3LYP/6-311++G(d,p) empiricaldispersion=gd3bj scf=xqc pop=npa geom=check

CID_62554705_JID_9019_Energie_anion

-1 2
