%chk=JID_4537.chk
%mem=8GB
%nprocshared=4
# opt freq B3LYP/6-31G(d) empiricaldispersion=gd3bj scf=xqc

CID_131143502_JID_4537_neutraal

0 1
C          0.96088        0.06350       -0.06662
C          0.30824        0.67415       -1.29982
C          0.85996        0.11696       -2.61362
C          0.49583       -1.32090       -2.83115
N          1.22632       -2.33405       -2.41477
C          0.60689       -3.53667       -2.75838
C          1.01252       -4.86890       -2.50531
N          0.23240       -5.87545       -2.97242
C         -0.89594       -5.57343       -3.63935
N         -1.37847       -4.35998       -3.92976
C         -0.58060       -3.38676       -3.46046
S         -0.94313       -1.73577       -3.67675
N          2.14577       -5.27736       -1.80129
C          3.30756       -4.41590       -1.83744
H          0.73159       -1.00248        0.02338
H          0.59219        0.55949        0.83703
H          2.04856        0.18255       -0.09776
H         -0.77704        0.52773       -1.24488
H          0.48453        1.75641       -1.28126
H          0.48564        0.72656       -3.44543
H          1.95241        0.21537       -2.62928
H         -1.48491       -6.41864       -3.98343
H          2.31564       -6.25354       -2.02471
H          4.16011       -4.94873       -1.40376
H          3.57714       -4.13864       -2.86215
H          3.15672       -3.51465       -1.23556

--Link1--
%chk=JID_4537.chk
%mem=8GB
%nprocshared=4
# B3LYP/6-311++G(d,p) empiricaldispersion=gd3bj scf=xqc pop=npa geom=check

CID_131143502_JID_4537_Energie_neutraal

0 1

--Link1--
%chk=JID_4537.chk
%mem=8GB
%nprocshared=4
# B3LYP/6-311++G(d,p) empiricaldispersion=gd3bj scf=xqc pop=npa geom=check

CID_131143502_JID_4537_Energie_kation

1 2

--Link1--
%chk=JID_4537.chk
%mem=8GB
%nprocshared=4
# B3LYP/6-311++G(d,p) empiricaldispersion=gd3bj scf=xqc pop=npa geom=check

CID_131143502_JID_4537_Energie_anion

-1 2
