%chk=JID_5884.chk
%mem=8GB
%nprocshared=4
# opt freq B3LYP/6-31G(d) empiricaldispersion=gd3bj scf=xqc

CID_63013424_JID_5884_neutraal

0 1
C          2.20000        0.01800       -0.02000
N          0.77845        0.07337        0.21172
C         -0.00715       -1.00740        0.50563
C         -1.27102       -0.49800        0.66722
N         -1.27135        0.85674        0.48173
C         -0.02603        1.19187        0.18650
C          0.46135        2.58892       -0.09592
N         -0.06916        3.14976       -1.34860
C          0.04932        4.59925       -1.37508
C          0.37909        2.47773       -2.57249
C          1.85823        2.60154       -2.97339
C          2.27832        3.94498       -3.57240
C          3.23686        3.59930       -4.70764
N          3.46901        2.15374       -4.62278
C          2.21744        1.61597       -4.08141
H          2.56948       -0.98381        0.21510
H          2.38801        0.23905       -1.07192
H          2.69421        0.74495        0.62866
H          0.37953       -2.01405        0.57651
H         -2.17981       -1.03250        0.91025
H          0.10733        3.19770        0.74760
H          1.55379        2.65289       -0.06931
H          1.08441        4.93657       -1.26642
H         -0.36316        5.01272       -2.30170
H         -0.53140        5.04317       -0.55830
H          0.12676        1.41240       -2.49516
H         -0.24387        2.83713       -3.40307
H          2.50090        2.39210       -2.10911
H          2.77750        4.56256       -2.81826
H          1.42560        4.50805       -3.96645
H          2.78324        3.84159       -5.67553
H          4.17642        4.15591       -4.63407
H          4.21759        1.98632       -3.94981
H          2.35677        0.59988       -3.69913
H          1.45348        1.58282       -4.86752

--Link1--
%chk=JID_5884.chk
%mem=8GB
%nprocshared=4
# B3LYP/6-311++G(d,p) empiricaldispersion=gd3bj scf=xqc pop=npa geom=check

CID_63013424_JID_5884_Energie_neutraal

0 1

--Link1--
%chk=JID_5884.chk
%mem=8GB
%nprocshared=4
# B3LYP/6-311++G(d,p) empiricaldispersion=gd3bj scf=xqc pop=npa geom=check

CID_63013424_JID_5884_Energie_kation

1 2

--Link1--
%chk=JID_5884.chk
%mem=8GB
%nprocshared=4
# B3LYP/6-311++G(d,p) empiricaldispersion=gd3bj scf=xqc pop=npa geom=check

CID_63013424_JID_5884_Energie_anion

-1 2
