%chk=JID_4706.chk
%mem=8GB
%nprocshared=4
# opt freq B3LYP/6-31G(d) empiricaldispersion=gd3bj scf=xqc

CID_142616435_JID_4706_neutraal

0 1
C          0.90171       -0.01631       -0.00858
C         -0.47661       -0.04357       -0.62882
C          1.60452       -3.46390       -1.74106
C          1.00560       -4.01491       -0.46676
C          3.71002        1.26506       -2.48605
C          2.50929        1.83613       -3.22435
C          2.21145        1.12335       -4.54356
C          1.76722       -0.32028       -4.36481
C          2.52302       -0.02984        3.83968
C          1.31320       -0.91469        4.00664
O          0.27623       -0.45301        4.48402
N          1.43260       -2.23696        3.59693
C          2.68299       -2.85521        3.18478
C          0.32328       -3.14251        3.84723
H          0.89964       -0.54356        0.94910
H          1.22671        1.01378        0.16463
H          1.62868       -0.50127       -0.66549
H         -0.80112       -1.07430       -0.79952
H         -1.20351        0.44153        0.02934
H         -0.47762        0.48099       -1.58869
H          0.90735       -2.77476       -2.22660
H          2.53143       -2.92301       -1.52815
H          1.83124       -4.27359       -2.44097
H          0.78243       -3.20640        0.23531
H          0.07636       -4.55165       -0.67952
H          1.70082       -4.70783        0.01637
H          3.53641        0.23179       -2.17262
H          3.91273        1.85500       -1.58640
H          4.60502        1.28894       -3.11566
H          1.62844        1.79964       -2.57351
H          2.70213        2.89464       -3.43591
H          1.41578        1.67072       -5.06289
H          3.09411        1.15559       -5.19285
H          0.89632       -0.38466       -3.70529
H          1.49050       -0.75024       -5.33284
H          2.56634       -0.93769       -3.94451
H          2.29646        0.96878        4.22610
H          2.77826        0.06510        2.78119
H          3.36749       -0.42868        4.40766
H          3.13030       -3.34465        4.05484
H          2.47977       -3.60043        2.41041
H          3.38959       -2.12739        2.78308
H         -0.60681       -2.60608        4.05236
H          0.17374       -3.77683        2.96859
H          0.57033       -3.76620        4.71162

--Link1--
%chk=JID_4706.chk
%mem=8GB
%nprocshared=4
# B3LYP/6-311++G(d,p) empiricaldispersion=gd3bj scf=xqc pop=npa geom=check

CID_142616435_JID_4706_Energie_neutraal

0 1

--Link1--
%chk=JID_4706.chk
%mem=8GB
%nprocshared=4
# B3LYP/6-311++G(d,p) empiricaldispersion=gd3bj scf=xqc pop=npa geom=check

CID_142616435_JID_4706_Energie_kation

1 2

--Link1--
%chk=JID_4706.chk
%mem=8GB
%nprocshared=4
# B3LYP/6-311++G(d,p) empiricaldispersion=gd3bj scf=xqc pop=npa geom=check

CID_142616435_JID_4706_Energie_anion

-1 2
