%chk=JID_8684.chk
%mem=8GB
%nprocshared=4
# opt freq B3LYP/6-31G(d) empiricaldispersion=gd3bj scf=xqc

CID_113953682_JID_8684_neutraal

0 1
C          1.00839       -0.04895       -0.08680
C          0.46492       -1.43898       -0.47272
C          1.48664       -2.17635       -1.36568
C          2.74255       -2.59352       -0.60117
C          2.39892       -3.37700        0.66643
N          1.47069       -2.59634        1.50053
C          0.20051       -2.26354        0.81743
C          1.26800       -3.17931        2.76844
N          0.03795       -3.60475        3.13532
C         -0.08801       -4.14106        4.38037
C          0.97758       -4.26012        5.26095
N          2.22483       -3.83438        4.92316
C          2.32837       -3.29475        3.67968
C          0.85584       -4.84884        6.63001
S         -0.52576       -5.47812        7.32827
N          2.02060       -4.85844        7.36104
O         -0.72517       -1.14288       -1.23158
C         -1.61651       -2.21406       -1.49592
H          0.25659        0.51137        0.48192
H          1.22048        0.54626       -0.98284
H          1.91978       -0.09562        0.51589
H          1.03301       -3.07733       -1.79439
H          1.75939       -1.55236       -2.22588
H          3.33014       -1.70602       -0.33871
H          3.37763       -3.20794       -1.24977
H          3.33737       -3.58726        1.19252
H          1.94803       -4.34163        0.39775
H         -0.46102       -1.68047        1.47288
H         -0.33156       -3.19061        0.56747
H         -1.09097       -4.46752        4.62962
H          3.31562       -2.92154        3.42712
H          2.86977       -4.47514        6.95380
H          2.04375       -5.22952        8.30191
H         -1.10983       -3.06896       -1.94842
H         -2.13572       -2.51652       -0.58258
H         -2.37169       -1.85582       -2.20157

--Link1--
%chk=JID_8684.chk
%mem=8GB
%nprocshared=4
# B3LYP/6-311++G(d,p) empiricaldispersion=gd3bj scf=xqc pop=npa geom=check

CID_113953682_JID_8684_Energie_neutraal

0 1

--Link1--
%chk=JID_8684.chk
%mem=8GB
%nprocshared=4
# B3LYP/6-311++G(d,p) empiricaldispersion=gd3bj scf=xqc pop=npa geom=check

CID_113953682_JID_8684_Energie_kation

1 2

--Link1--
%chk=JID_8684.chk
%mem=8GB
%nprocshared=4
# B3LYP/6-311++G(d,p) empiricaldispersion=gd3bj scf=xqc pop=npa geom=check

CID_113953682_JID_8684_Energie_anion

-1 2
