%chk=JID_10586.chk
%mem=8GB
%nprocshared=4
# opt freq B3LYP/6-31G(d) empiricaldispersion=gd3bj scf=xqc

CID_142633792_JID_10586_neutraal

0 1
C          0.92193        0.03128       -0.05410
C          1.08745       -0.13676       -1.55603
C          1.31489       -1.58751       -1.98820
C          0.19833       -2.57173       -1.62327
C         -1.19963       -2.20287       -2.12883
C         -1.32268       -2.01743       -3.64377
C         -0.96163       -3.24236       -4.48962
C         -1.77076       -4.51199       -4.19711
C         -3.27917       -4.35942       -4.38426
O         -3.55103       -3.97328       -5.73983
C         -4.30558       -2.86105       -5.91737
O         -4.79521       -2.16769       -5.03913
C         -4.38571       -2.50517       -7.36512
C         -4.57740       -3.52279       -8.22670
O         -4.74718       -3.60497       -9.57352
C         -4.79896       -2.47286      -10.43863
C         -6.12110       -1.77993      -10.35278
C         -6.23840       -0.27452      -10.32640
O         -6.44627       -1.01575      -11.52972
C         -4.25911       -1.03787       -7.60978
H          0.00929       -0.45188        0.30665
H          0.85651        1.09416        0.19993
H          1.77487       -0.39337        0.48465
H          0.21518        0.28324       -2.06834
H          1.95040        0.45780       -1.87976
H          1.47770       -1.60716       -3.07229
H          2.24906       -1.94747       -1.53857
H          0.47280       -3.56315       -2.00312
H          0.15429       -2.67833       -0.53258
H         -1.90420       -2.97449       -1.79669
H         -1.52903       -1.27834       -1.63984
H         -2.34905       -1.70839       -3.86942
H         -0.69184       -1.17926       -3.96232
H         -1.08175       -2.97621       -5.54727
H          0.10281       -3.47214       -4.36193
H         -1.41302       -5.29122       -4.88217
H         -1.56409       -4.86763       -3.18189
H         -3.76256       -5.32887       -4.22193
H         -3.69219       -3.66389       -3.64667
H         -4.64562       -4.54814       -7.86326
H         -3.93790       -1.81704      -10.29053
H         -4.69156       -2.87443      -11.45328
H         -6.91206       -2.39089       -9.93997
H         -7.10783        0.16126       -9.84955
H         -5.34145        0.32802      -10.26187
H         -5.24540       -0.56592       -7.62859
H         -3.67801       -0.55555       -6.81449
H         -3.72362       -0.80893       -8.53080

--Link1--
%chk=JID_10586.chk
%mem=8GB
%nprocshared=4
# B3LYP/6-311++G(d,p) empiricaldispersion=gd3bj scf=xqc pop=npa geom=check

CID_142633792_JID_10586_Energie_neutraal

0 1

--Link1--
%chk=JID_10586.chk
%mem=8GB
%nprocshared=4
# B3LYP/6-311++G(d,p) empiricaldispersion=gd3bj scf=xqc pop=npa geom=check

CID_142633792_JID_10586_Energie_kation

1 2

--Link1--
%chk=JID_10586.chk
%mem=8GB
%nprocshared=4
# B3LYP/6-311++G(d,p) empiricaldispersion=gd3bj scf=xqc pop=npa geom=check

CID_142633792_JID_10586_Energie_anion

-1 2
