%chk=JID_8787.chk
%mem=8GB
%nprocshared=4
# opt freq B3LYP/6-31G(d) empiricaldispersion=gd3bj scf=xqc

CID_128790544_JID_8787_neutraal

0 1
C          0.96292        0.08419        0.03922
C         -0.29721       -0.18388       -0.78618
C         -0.24519       -1.72129       -0.92665
C          1.28467       -2.00713       -1.08863
C          1.89236       -0.58072       -0.98424
C          1.46307        0.18816       -2.21688
C          0.14666        0.41882       -2.09872
C          1.82027       -2.92197       -0.04468
N          1.19226       -3.68759        0.81779
C          2.23336       -4.27478        1.51910
N          3.44909       -3.89718        1.08553
O          3.17718       -3.01556        0.04584
C          2.00124       -5.21209        2.62220
C          0.72048       -5.70812        2.86208
C          0.52627       -6.59186        3.92154
C          1.60924       -6.95163        4.71389
C          2.84867       -6.41388        4.41173
N          3.06860       -5.55966        3.38942
H          0.95580       -0.41156        1.01612
H          1.16965        1.15227        0.18543
H         -1.22039        0.22946       -0.37902
H         -0.80727       -2.06988       -1.80089
H         -0.67406       -2.19555       -0.03711
H          1.48296       -2.45352       -2.07150
H          2.95582       -0.50249       -0.75228
H          2.09398        0.44957       -3.05323
H         -0.49298        0.90554       -2.81980
H         -0.11626       -5.41623        2.23460
H         -0.46224       -6.99380        4.12523
H          1.49138       -7.63477        5.54770
H          3.72621       -6.66212        5.00227

--Link1--
%chk=JID_8787.chk
%mem=8GB
%nprocshared=4
# B3LYP/6-311++G(d,p) empiricaldispersion=gd3bj scf=xqc pop=npa geom=check

CID_128790544_JID_8787_Energie_neutraal

0 1

--Link1--
%chk=JID_8787.chk
%mem=8GB
%nprocshared=4
# B3LYP/6-311++G(d,p) empiricaldispersion=gd3bj scf=xqc pop=npa geom=check

CID_128790544_JID_8787_Energie_kation

1 2

--Link1--
%chk=JID_8787.chk
%mem=8GB
%nprocshared=4
# B3LYP/6-311++G(d,p) empiricaldispersion=gd3bj scf=xqc pop=npa geom=check

CID_128790544_JID_8787_Energie_anion

-1 2
