%chk=JID_9609.chk
%mem=8GB
%nprocshared=4
# opt freq B3LYP/6-31G(d) empiricaldispersion=gd3bj scf=xqc

CID_141021469_JID_9609_neutraal

0 1
C          2.50100       -0.11500        0.00200
C          1.01419        0.03835        0.03492
C          0.19186       -1.02888        0.37180
N         -1.15913       -0.96852        0.39760
C         -1.74025        0.21048        0.06876
C         -0.99539        1.32750       -0.30113
C          0.39470        1.23510       -0.32168
C         -3.24422        0.26723        0.10892
C         -3.91472       -0.35819       -1.08669
O         -5.02135       -0.88200       -1.03051
O         -3.20196       -0.17350       -2.23058
C         -3.73014       -0.81352       -3.40394
C         -3.25710       -2.24344       -3.54581
N         -4.09403       -3.10588       -4.17550
C         -3.68005       -4.38531       -4.32151
C         -2.44404       -4.85986       -3.90210
C         -1.59345       -3.95508       -3.26961
C         -1.99620       -2.63268       -3.09682
C         -2.06913       -6.29806       -4.06076
H          2.84360       -0.74572        0.82905
H          2.81088       -0.56935       -0.94414
H          2.99971        0.85455        0.10423
H          0.60635       -1.99706        0.64112
H         -1.48125        2.25940       -0.57244
H          0.98568        2.10005       -0.61231
H         -3.58012       -0.27042        1.00372
H         -3.59332        1.30201        0.19629
H         -4.82491       -0.75547       -3.42908
H         -3.36239       -0.24695       -4.26668
H         -4.40151       -5.04005       -4.80332
H         -0.62043       -4.27087       -2.90292
H         -1.33586       -1.92537       -2.60363
H         -2.32271       -6.85449       -3.15315
H         -2.59424       -6.75074       -4.90844
H         -0.99565       -6.40055       -4.25137

--Link1--
%chk=JID_9609.chk
%mem=8GB
%nprocshared=4
# B3LYP/6-311++G(d,p) empiricaldispersion=gd3bj scf=xqc pop=npa geom=check

CID_141021469_JID_9609_Energie_neutraal

0 1

--Link1--
%chk=JID_9609.chk
%mem=8GB
%nprocshared=4
# B3LYP/6-311++G(d,p) empiricaldispersion=gd3bj scf=xqc pop=npa geom=check

CID_141021469_JID_9609_Energie_kation

1 2

--Link1--
%chk=JID_9609.chk
%mem=8GB
%nprocshared=4
# B3LYP/6-311++G(d,p) empiricaldispersion=gd3bj scf=xqc pop=npa geom=check

CID_141021469_JID_9609_Energie_anion

-1 2
