%chk=JID_9383.chk
%mem=8GB
%nprocshared=4
# opt freq B3LYP/6-31G(d) empiricaldispersion=gd3bj scf=xqc

CID_140017103_JID_9383_neutraal

0 1
C          1.08616       -0.04773       -0.01725
C          0.79174       -0.01642        1.47095
O          1.19375        1.24115        2.03491
C          2.50188        1.33836        2.41228
O          3.31982        0.43158        2.28976
C          2.82634        2.70180        3.06289
C          2.55772        3.95471        2.21834
C          2.76190        5.21987        2.80879
C          2.57017        6.36617        2.05492
C          2.17387        6.29032        0.71958
C          1.97932        7.65706        0.14313
C          2.76141        8.51655        1.14701
C          2.68824        7.79040        2.49818
C          1.97350        5.06734        0.10856
C          2.18443        3.90199        0.85607
O          2.42839        2.88535        4.42717
C          1.09567        2.50759        4.76781
C          0.08989        3.42101        4.21843
C         -0.73135        4.17173        3.76570
H          0.59334        0.78900       -0.52317
H          0.73653       -0.98365       -0.46203
H          2.15901        0.05160       -0.20949
H         -0.28696       -0.10878        1.63439
H          1.26774       -0.85482        1.99230
H          3.92566        2.68658        3.11542
H          3.06199        5.30068        3.85100
H          0.91599        7.91799        0.14303
H          2.38922        7.74958       -0.86637
H          3.81137        8.57549        0.82736
H          2.38438        9.54249        1.20266
H          3.58604        7.97009        3.09621
H          1.79619        8.08615        3.05961
H          1.66387        5.00609       -0.93002
H          2.04405        2.95221        0.34702
H          0.90288        1.46409        4.50370
H          1.03830        2.55143        5.86136
H         -1.44219        4.84874        3.35170

--Link1--
%chk=JID_9383.chk
%mem=8GB
%nprocshared=4
# B3LYP/6-311++G(d,p) empiricaldispersion=gd3bj scf=xqc pop=npa geom=check

CID_140017103_JID_9383_Energie_neutraal

0 1

--Link1--
%chk=JID_9383.chk
%mem=8GB
%nprocshared=4
# B3LYP/6-311++G(d,p) empiricaldispersion=gd3bj scf=xqc pop=npa geom=check

CID_140017103_JID_9383_Energie_kation

1 2

--Link1--
%chk=JID_9383.chk
%mem=8GB
%nprocshared=4
# B3LYP/6-311++G(d,p) empiricaldispersion=gd3bj scf=xqc pop=npa geom=check

CID_140017103_JID_9383_Energie_anion

-1 2
