%chk=JID_4244.chk
%mem=8GB
%nprocshared=4
# opt freq B3LYP/6-31G(d) empiricaldispersion=gd3bj scf=xqc

CID_103925964_JID_4244_neutraal

0 1
C          1.02168       -0.09679       -0.01272
C          0.49557       -0.93071       -1.17196
C          1.43921       -0.94364       -2.36337
C          2.70857       -1.76732       -2.23409
C          1.59656       -2.25793       -3.11144
C          1.49463        0.33169       -3.18405
N          0.32828        0.41732       -4.03953
C         -0.82247        1.12589       -3.89224
O         -1.71568        0.96875       -4.72560
C         -0.95413        2.12884       -2.76598
C         -2.37619        2.15102       -2.20443
C         -2.37178        1.91141       -0.72022
O         -1.55287        2.32448        0.08324
O         -3.42851        1.18842       -0.30620
H          1.98104       -0.48350        0.34580
H          0.31354       -0.12160        0.82155
H          1.17095        0.94820       -0.29722
H          0.33192       -1.95326       -0.80891
H         -0.48794       -0.55987       -1.47831
H          3.61533       -1.41518       -2.71374
H          2.89256       -2.30476       -1.30954
H          1.02647       -3.11911       -2.77918
H          1.75629       -2.23864       -4.18416
H          1.59886        1.21760       -2.55567
H          2.36050        0.31756       -3.85626
H          0.28790       -0.22867       -4.81807
H         -0.22662        1.93255       -1.98029
H         -0.71011        3.11013       -3.19023
H         -2.84344        3.12635       -2.37784
H         -3.01028        1.38871       -2.67043
H         -3.31783        1.12886        0.66570

--Link1--
%chk=JID_4244.chk
%mem=8GB
%nprocshared=4
# B3LYP/6-311++G(d,p) empiricaldispersion=gd3bj scf=xqc pop=npa geom=check

CID_103925964_JID_4244_Energie_neutraal

0 1

--Link1--
%chk=JID_4244.chk
%mem=8GB
%nprocshared=4
# B3LYP/6-311++G(d,p) empiricaldispersion=gd3bj scf=xqc pop=npa geom=check

CID_103925964_JID_4244_Energie_kation

1 2

--Link1--
%chk=JID_4244.chk
%mem=8GB
%nprocshared=4
# B3LYP/6-311++G(d,p) empiricaldispersion=gd3bj scf=xqc pop=npa geom=check

CID_103925964_JID_4244_Energie_anion

-1 2
