%chk=JID_10570.chk
%mem=8GB
%nprocshared=4
# opt freq B3LYP/6-31G(d) empiricaldispersion=gd3bj scf=xqc

CID_18870571_JID_10570_neutraal

0 1
C          2.49200        0.00400       -0.01400
C          0.99473        0.00320        0.09085
C          0.28110       -1.19617       -0.08676
C         -1.11403       -1.24488        0.02875
C         -1.78623       -0.03711        0.26713
C         -1.09172        1.16024        0.45473
C          0.29713        1.17881        0.37568
N         -1.88231       -2.38660       -0.22333
C         -1.28405       -3.72530       -0.14429
C         -0.92605       -4.23029        1.21281
N          0.16820       -4.83750        1.62187
N         -0.03094       -5.13506        2.95457
C         -1.23146       -4.68792        3.26839
O         -1.86894       -4.10585        2.20145
C         -1.95562       -4.75108        4.53175
C         -1.39277       -5.43415        5.62114
C         -2.06802       -5.51629        6.84181
C         -3.31501       -4.91373        6.98985
C         -3.88716       -4.22906        5.91995
C         -3.21212       -4.14825        4.69838
H          2.92649       -0.55279        0.82222
H          2.80663       -0.45679       -0.95605
H          2.89521        1.02181        0.00731
H          0.85134       -2.09101       -0.31868
H         -2.87255       -0.01730        0.30739
H         -1.63784        2.07862        0.65193
H          0.82790        2.11632        0.52179
H         -2.77165       -2.34704        0.26903
H         -2.02308       -4.42360       -0.55717
H         -0.42042       -3.80299       -0.81447
H         -0.41848       -5.91141        5.52323
H         -1.61863       -6.05067        7.67522
H         -3.84023       -4.97674        7.93970
H         -4.85937       -3.75627        6.03559
H         -3.67904       -3.60567        3.87929

--Link1--
%chk=JID_10570.chk
%mem=8GB
%nprocshared=4
# B3LYP/6-311++G(d,p) empiricaldispersion=gd3bj scf=xqc pop=npa geom=check

CID_18870571_JID_10570_Energie_neutraal

0 1

--Link1--
%chk=JID_10570.chk
%mem=8GB
%nprocshared=4
# B3LYP/6-311++G(d,p) empiricaldispersion=gd3bj scf=xqc pop=npa geom=check

CID_18870571_JID_10570_Energie_kation

1 2

--Link1--
%chk=JID_10570.chk
%mem=8GB
%nprocshared=4
# B3LYP/6-311++G(d,p) empiricaldispersion=gd3bj scf=xqc pop=npa geom=check

CID_18870571_JID_10570_Energie_anion

-1 2
