%chk=JID_3384.chk
%mem=8GB
%nprocshared=4
# opt freq B3LYP/6-31G(d) empiricaldispersion=gd3bj scf=xqc

CID_64207646_JID_3384_neutraal

0 1
C         -2.31000       -0.07700        0.01100
C         -0.86971       -0.25712       -0.30213
C         -0.09523       -1.41072       -0.20656
O          1.20385       -1.10769       -0.52642
C          1.25670        0.20454       -0.85245
C          0.01434        0.77399       -0.73767
C         -0.36707       -2.78562        0.17312
O          0.42031       -3.48588        0.81227
N         -1.56942       -3.36294       -0.20990
N         -2.27354       -2.92963       -1.34372
C         -3.61823       -3.13917       -1.47391
O         -4.22872       -2.91296       -2.50922
N         -4.23333       -3.62959       -0.36841
H         -2.48779        0.91331        0.44385
H         -2.91285       -0.15939       -0.89837
H         -2.65989       -0.81740        0.73663
H          2.23200        0.57947       -1.13115
H         -0.22618        1.81226       -0.92258
H         -1.61184       -4.36319       -0.02870
H         -1.75515       -2.66003       -2.17626
H         -3.83029       -3.37583        0.52206
H         -5.24349       -3.65339       -0.41945

--Link1--
%chk=JID_3384.chk
%mem=8GB
%nprocshared=4
# B3LYP/6-311++G(d,p) empiricaldispersion=gd3bj scf=xqc pop=npa geom=check

CID_64207646_JID_3384_Energie_neutraal

0 1

--Link1--
%chk=JID_3384.chk
%mem=8GB
%nprocshared=4
# B3LYP/6-311++G(d,p) empiricaldispersion=gd3bj scf=xqc pop=npa geom=check

CID_64207646_JID_3384_Energie_kation

1 2

--Link1--
%chk=JID_3384.chk
%mem=8GB
%nprocshared=4
# B3LYP/6-311++G(d,p) empiricaldispersion=gd3bj scf=xqc pop=npa geom=check

CID_64207646_JID_3384_Energie_anion

-1 2
