%chk=JID_8113.chk
%mem=8GB
%nprocshared=4
# opt freq B3LYP/6-31G(d) empiricaldispersion=gd3bj scf=xqc

CID_151821924_JID_8113_neutraal

0 1
C          0.92995        0.06724        0.02391
C          0.64749       -0.21716        1.46909
C          0.31966        0.82599        2.34509
C          0.08513        0.60009        3.71905
C         -0.24640        1.64394        4.61160
C         -0.45678        1.41085        5.97170
C         -0.34401        0.11815        6.47036
C         -0.04456       -0.93107        5.59731
C          0.19297       -0.71771        4.22119
C          0.53613       -1.75826        3.33189
C          0.76591       -1.51034        1.97667
O          0.12399       -2.22930        6.11706
C         -0.99672       -2.80434        6.69212
O         -2.10266       -2.29506        6.81260
C         -0.68286       -4.17892        7.19423
C          0.50067       -4.78132        6.98453
C         -1.79549       -4.84365        7.94969
O         -0.35710        2.92404        4.12879
H          0.31762        0.90038       -0.33681
H          0.69401       -0.80194       -0.59908
H          1.98645        0.31995       -0.10822
H          0.24535        1.84082        1.95588
H         -0.70375        2.21973        6.65193
H         -0.49880       -0.07041        7.52864
H          0.63037       -2.77978        3.69322
H          1.03630       -2.33626        1.32292
H          0.69479       -5.78145        7.36113
H          1.31136       -4.31121        6.43606
H         -2.06961       -4.25152        8.82932
H         -2.68052       -4.95548        7.31462
H         -1.51180       -5.84193        8.29994
H         -0.63678        3.50842        4.85169

--Link1--
%chk=JID_8113.chk
%mem=8GB
%nprocshared=4
# B3LYP/6-311++G(d,p) empiricaldispersion=gd3bj scf=xqc pop=npa geom=check

CID_151821924_JID_8113_Energie_neutraal

0 1

--Link1--
%chk=JID_8113.chk
%mem=8GB
%nprocshared=4
# B3LYP/6-311++G(d,p) empiricaldispersion=gd3bj scf=xqc pop=npa geom=check

CID_151821924_JID_8113_Energie_kation

1 2

--Link1--
%chk=JID_8113.chk
%mem=8GB
%nprocshared=4
# B3LYP/6-311++G(d,p) empiricaldispersion=gd3bj scf=xqc pop=npa geom=check

CID_151821924_JID_8113_Energie_anion

-1 2
