%chk=JID_9262.chk
%mem=8GB
%nprocshared=4
# opt freq B3LYP/6-31G(d) empiricaldispersion=gd3bj scf=xqc

CID_22541819_JID_9262_neutraal

0 1
C          2.49200        0.00400       -0.01400
C          0.99413       -0.07198        0.02083
C          0.36010       -1.31501        0.15211
C         -1.03893       -1.42302        0.15044
C         -1.81223       -0.24673        0.01301
C         -1.18043        0.99173       -0.13245
C          0.21418        1.07642       -0.13026
O         -3.17438       -0.43594        0.00190
C         -3.99089        0.72751        0.01361
N         -1.72029       -2.66348        0.34492
C         -1.15876       -3.95701        0.33415
N         -1.50749       -4.74253       -0.70011
C         -0.93613       -5.95324       -0.73713
N         -0.08862       -6.46878        0.16283
C          0.19702       -5.69197        1.21993
C         -0.28217       -4.37870        1.34102
N         -0.07939       -3.64648        2.54523
N          1.04142       -6.17033        2.25958
C          1.38482       -7.57678        2.13945
H          2.92739       -0.64542        0.75273
H          2.85999       -0.30552       -0.99709
H          2.84239        1.02242        0.18387
H          0.98043       -2.20338        0.23363
H         -1.74304        1.91033       -0.25889
H          0.68637        2.04892       -0.25340
H         -3.77725        1.35518        0.88521
H         -3.88258        1.29203       -0.91815
H         -5.03349        0.40307        0.08549
H         -2.48970       -2.67041       -0.32602
H         -1.18831       -6.58374       -1.58317
H          0.86331       -3.80629        2.89493
H         -0.29608       -2.66033        2.40788
H          0.55124       -5.96847        3.13130
H          2.01116       -7.86264        2.99058
H          0.49370       -8.21387        2.15570
H          1.96276       -7.77236        1.22963

--Link1--
%chk=JID_9262.chk
%mem=8GB
%nprocshared=4
# B3LYP/6-311++G(d,p) empiricaldispersion=gd3bj scf=xqc pop=npa geom=check

CID_22541819_JID_9262_Energie_neutraal

0 1

--Link1--
%chk=JID_9262.chk
%mem=8GB
%nprocshared=4
# B3LYP/6-311++G(d,p) empiricaldispersion=gd3bj scf=xqc pop=npa geom=check

CID_22541819_JID_9262_Energie_kation

1 2

--Link1--
%chk=JID_9262.chk
%mem=8GB
%nprocshared=4
# B3LYP/6-311++G(d,p) empiricaldispersion=gd3bj scf=xqc pop=npa geom=check

CID_22541819_JID_9262_Energie_anion

-1 2
