%chk=JID_5746.chk
%mem=8GB
%nprocshared=4
# opt freq B3LYP/6-31G(d) empiricaldispersion=gd3bj scf=xqc

CID_114690313_JID_5746_neutraal

0 1
C          0.99384       -0.01614       -0.09850
C          0.44617        1.13744        0.72901
C          0.86874        2.48598        0.14578
N         -0.22876        3.42322        0.01603
C         -1.25606        3.44466       -0.90341
C         -1.96148        4.57466       -0.53549
N         -1.36104        5.18170        0.52791
N         -0.29830        4.46758        0.85898
C         -1.46609        2.39796       -1.96321
C         -0.53304        2.59047       -3.16990
C         -1.02414        3.64328       -4.15748
C         -2.44068        3.33673       -4.62838
C         -3.40299        3.25787       -3.44208
C         -2.93472        2.23347       -2.39888
N         -4.74956        2.91039       -3.89792
H          0.62591        0.01757       -1.12820
H          0.68881       -0.97231        0.33829
H          2.08813        0.00888       -0.12514
H         -0.64391        1.04345        0.79505
H          0.82655        1.05165        1.75406
H          1.62709        2.94717        0.79054
H          1.32254        2.38555       -0.84440
H         -2.86634        4.98233       -0.95977
H         -1.19754        1.43981       -1.50287
H         -0.45441        1.63181       -3.70027
H          0.48337        2.84810       -2.85399
H         -0.35052        3.67228       -5.02162
H         -0.99062        4.63639       -3.69425
H         -2.44055        2.38943       -5.18376
H         -2.76476        4.11583       -5.32888
H         -3.46493        4.24745       -2.97999
H         -3.59820        2.25559       -1.52404
H         -3.03668        1.22658       -2.82981
H         -5.05775        3.58174       -4.60110
H         -4.73865        2.00352       -4.36381

--Link1--
%chk=JID_5746.chk
%mem=8GB
%nprocshared=4
# B3LYP/6-311++G(d,p) empiricaldispersion=gd3bj scf=xqc pop=npa geom=check

CID_114690313_JID_5746_Energie_neutraal

0 1

--Link1--
%chk=JID_5746.chk
%mem=8GB
%nprocshared=4
# B3LYP/6-311++G(d,p) empiricaldispersion=gd3bj scf=xqc pop=npa geom=check

CID_114690313_JID_5746_Energie_kation

1 2

--Link1--
%chk=JID_5746.chk
%mem=8GB
%nprocshared=4
# B3LYP/6-311++G(d,p) empiricaldispersion=gd3bj scf=xqc pop=npa geom=check

CID_114690313_JID_5746_Energie_anion

-1 2
