%chk=JID_9859.chk
%mem=8GB
%nprocshared=4
# opt freq B3LYP/6-31G(d) empiricaldispersion=gd3bj scf=xqc

CID_71164327_JID_9859_neutraal

0 1
C          1.06695       -0.06190        0.04105
C          0.20697        0.39387        1.20977
C          0.78399        1.58775        1.88350
C          1.62181        1.75936        2.95682
C          2.17385        0.74738        3.74083
C          3.00746        1.25008        4.76861
C          3.18526        2.66821        4.97131
C          2.61264        3.67656        4.15933
C          1.81020        3.17733        3.12412
N          1.11603        3.83275        2.18033
N          0.51838        2.86466        1.46161
N          3.60725        0.38132        5.72416
C          3.96248       -0.98319        5.58243
N          3.95651       -1.58689        4.38201
C          4.28742       -2.87847        4.33192
N          4.65492       -3.61577        5.38058
C          4.64195       -2.99644        6.57049
C          4.30233       -1.67544        6.72956
N          4.30581       -3.48280        3.09109
H          1.15865        0.72484       -0.71549
H          0.62290       -0.94128       -0.43606
H          2.07650       -0.32849        0.37219
H         -0.80304        0.62230        0.84904
H          0.10227       -0.42848        1.92652
H          1.98121       -0.30491        3.59107
H          3.80397        3.00405        5.80336
H          2.76682        4.73317        4.32357
H         -0.06702        3.14800        0.68357
H          4.30489        0.86132        6.28156
H          4.91950       -3.61309        7.41988
H          4.29113       -1.21335        7.70700
H          4.95315       -4.25813        3.10783
H          4.44665       -2.77644        2.38214

--Link1--
%chk=JID_9859.chk
%mem=8GB
%nprocshared=4
# B3LYP/6-311++G(d,p) empiricaldispersion=gd3bj scf=xqc pop=npa geom=check

CID_71164327_JID_9859_Energie_neutraal

0 1

--Link1--
%chk=JID_9859.chk
%mem=8GB
%nprocshared=4
# B3LYP/6-311++G(d,p) empiricaldispersion=gd3bj scf=xqc pop=npa geom=check

CID_71164327_JID_9859_Energie_kation

1 2

--Link1--
%chk=JID_9859.chk
%mem=8GB
%nprocshared=4
# B3LYP/6-311++G(d,p) empiricaldispersion=gd3bj scf=xqc pop=npa geom=check

CID_71164327_JID_9859_Energie_anion

-1 2
