%chk=JID_2114.chk
%mem=8GB
%nprocshared=4
# opt freq B3LYP/6-31G(d) empiricaldispersion=gd3bj scf=xqc

CID_131289368_JID_2114_neutraal

0 1
C          0.93421       -0.00206       -0.07529
C          0.43105        1.29944        0.57171
C          0.83351        2.56254       -0.22757
N          0.15795        2.80608       -1.49833
C         -0.28827        1.77629       -2.38060
C          0.59409        1.99186       -3.56915
O          0.65248        3.41767       -3.63356
C          0.67773        3.81585       -2.31396
O          1.17586        4.86179       -1.93578
C         -0.06186        1.30890       -4.75814
N         -0.60603        0.74233       -5.74450
N         -1.00920        1.21438        0.83461
H          0.15260       -0.56188       -0.59882
H          1.28975       -0.67901        0.71223
H          1.77404        0.17045       -0.75630
H          0.93337        1.37802        1.54455
H          0.65746        3.45317        0.38969
H          1.91376        2.53624       -0.42292
H         -0.25834        0.76258       -2.00807
H         -1.33835        2.00606       -2.60853
H          1.60916        1.59876       -3.42985
H         -1.28858        2.00000        1.42498
H         -1.53014        1.34808       -0.03103

--Link1--
%chk=JID_2114.chk
%mem=8GB
%nprocshared=4
# B3LYP/6-311++G(d,p) empiricaldispersion=gd3bj scf=xqc pop=npa geom=check

CID_131289368_JID_2114_Energie_neutraal

0 1

--Link1--
%chk=JID_2114.chk
%mem=8GB
%nprocshared=4
# B3LYP/6-311++G(d,p) empiricaldispersion=gd3bj scf=xqc pop=npa geom=check

CID_131289368_JID_2114_Energie_kation

1 2

--Link1--
%chk=JID_2114.chk
%mem=8GB
%nprocshared=4
# B3LYP/6-311++G(d,p) empiricaldispersion=gd3bj scf=xqc pop=npa geom=check

CID_131289368_JID_2114_Energie_anion

-1 2
