%chk=JID_3799.chk
%mem=8GB
%nprocshared=4
# opt freq B3LYP/6-31G(d) empiricaldispersion=gd3bj scf=xqc

CID_62597783_JID_3799_neutraal

0 1
C          1.07674       -0.05782        0.02771
C          0.38408       -1.36480        0.40800
C          0.47456       -1.58219        1.92097
C         -1.09071       -1.41339       -0.03768
C         -1.35487       -1.13474       -1.52233
C         -0.62599       -2.05233       -2.50265
O         -1.17827       -3.36491       -2.48265
C         -0.38230       -4.35976       -1.83988
C          0.88888       -4.74574       -2.62398
N          2.06215       -3.96101       -2.20446
C          3.28522       -4.35081       -2.89988
C          3.36044       -3.76428       -4.27649
C          4.31804       -2.92531       -4.69345
H          0.54011        0.80707        0.43211
H          1.14452        0.05951       -1.05793
H          2.09969       -0.03252        0.41888
H          0.93242       -2.18321       -0.06869
H         -0.03355       -0.78161        2.46940
H          0.01476       -2.53452        2.20549
H          1.51937       -1.60596        2.24873
H         -1.51190       -2.39271        0.22133
H         -1.66319       -0.67901        0.54475
H         -2.43562       -1.22717       -1.68922
H         -1.09302       -0.09419       -1.74594
H         -0.79884       -1.66649       -3.51370
H          0.45298       -2.03342       -2.34563
H         -0.16397       -4.07766       -0.80558
H         -1.01947       -5.24982       -1.78285
H          1.09722       -5.80447       -2.42934
H          0.70101       -4.61853       -3.69517
H          2.20393       -4.08874       -1.20353
H          4.13483       -3.99223       -2.30542
H          3.38585       -5.44130       -2.94774
H          2.58711       -4.05821       -4.98155
H          4.31402       -2.54076       -5.70873
H          5.11525       -2.59526       -4.03480

--Link1--
%chk=JID_3799.chk
%mem=8GB
%nprocshared=4
# B3LYP/6-311++G(d,p) empiricaldispersion=gd3bj scf=xqc pop=npa geom=check

CID_62597783_JID_3799_Energie_neutraal

0 1

--Link1--
%chk=JID_3799.chk
%mem=8GB
%nprocshared=4
# B3LYP/6-311++G(d,p) empiricaldispersion=gd3bj scf=xqc pop=npa geom=check

CID_62597783_JID_3799_Energie_kation

1 2

--Link1--
%chk=JID_3799.chk
%mem=8GB
%nprocshared=4
# B3LYP/6-311++G(d,p) empiricaldispersion=gd3bj scf=xqc pop=npa geom=check

CID_62597783_JID_3799_Energie_anion

-1 2
