%chk=JID_8376.chk
%mem=8GB
%nprocshared=4
# opt freq B3LYP/6-31G(d) empiricaldispersion=gd3bj scf=xqc

CID_125869410_JID_8376_neutraal

0 1
C          2.49200        0.00400       -0.01400
C          1.00089       -0.15358       -0.14062
C          0.44342       -1.35896       -0.60571
C         -0.94309       -1.47496       -0.73981
C         -1.77490       -0.41518       -0.36755
C         -1.22655        0.78531        0.08679
C          0.15700        0.91359        0.20108
C         -3.24554       -0.48700       -0.49333
N         -4.05464       -1.48749       -0.29849
N         -3.56718       -2.64926        0.20472
C         -3.18999       -2.89757        1.48331
N         -3.00074       -4.16232        1.75398
N         -3.33767       -4.80844        0.59301
C         -3.76746       -3.89080       -0.36301
S         -4.34663       -4.30604       -1.85956
C         -3.00721       -1.82207        2.50326
O          1.33811       -2.34713       -0.92495
C          0.81534       -3.65824       -1.10968
H          2.89469       -0.74215        0.67863
H          2.96938       -0.11125       -0.99245
H          2.76013        0.99301        0.37235
H         -1.38256       -2.36967       -1.16355
H         -1.86287        1.62358        0.36030
H          0.57644        1.85206        0.55842
H         -3.72560        0.45870       -0.80263
H         -3.38387       -5.81842        0.52968
H         -3.61738       -0.94461        2.28046
H         -3.29150       -2.20238        3.48881
H         -1.95314       -1.53340        2.53425
H          0.21576       -3.97544       -0.24946
H          0.23932       -3.72065       -2.03837
H          1.66222       -4.34568       -1.19656

--Link1--
%chk=JID_8376.chk
%mem=8GB
%nprocshared=4
# B3LYP/6-311++G(d,p) empiricaldispersion=gd3bj scf=xqc pop=npa geom=check

CID_125869410_JID_8376_Energie_neutraal

0 1

--Link1--
%chk=JID_8376.chk
%mem=8GB
%nprocshared=4
# B3LYP/6-311++G(d,p) empiricaldispersion=gd3bj scf=xqc pop=npa geom=check

CID_125869410_JID_8376_Energie_kation

1 2

--Link1--
%chk=JID_8376.chk
%mem=8GB
%nprocshared=4
# B3LYP/6-311++G(d,p) empiricaldispersion=gd3bj scf=xqc pop=npa geom=check

CID_125869410_JID_8376_Energie_anion

-1 2
