%chk=JID_10255.chk
%mem=8GB
%nprocshared=4
# opt freq B3LYP/6-31G(d) empiricaldispersion=gd3bj scf=xqc

CID_129181073_JID_10255_neutraal

0 1
C          1.00931       -0.09825        0.01616
C          0.20085        0.20497       -1.23519
C          0.44714       -0.77763       -2.38381
C          0.07329       -2.24129       -2.10645
C         -1.38962       -2.51658       -1.70375
C         -2.43177       -1.85182       -2.63770
C         -2.31634       -2.13483       -4.14314
C         -2.83658       -3.49551       -4.57479
C         -1.69953       -4.01419       -1.49577
O         -2.83612       -4.45636       -1.68943
C         -0.63697       -4.90422       -0.86041
C         -0.88802       -6.39701       -1.09000
C         -0.61765       -6.86548       -2.52753
C          0.86595       -6.80997       -2.90997
C          1.17947       -7.55761       -4.21011
C          0.57890       -6.94753       -5.48005
C          1.07524       -5.54093       -5.83906
C          2.59321       -5.38451       -5.99615
C          3.19035       -6.28470       -7.04104
C          3.74371       -5.85352       -8.18152
H          0.69683       -1.04129        0.47434
H          0.86631        0.69457        0.75739
H          2.07810       -0.16081       -0.21127
H         -0.86284        0.24110       -0.97903
H          0.46916        1.20990       -1.58343
H         -0.08866       -0.41852       -3.26902
H          1.51175       -0.74523       -2.64966
H          0.32545       -2.84073       -2.99064
H          0.73949       -2.59772       -1.31246
H         -1.54036       -2.07952       -0.70643
H         -3.44664       -2.10248       -2.30313
H         -2.35472       -0.76517       -2.50794
H         -2.90890       -1.37486       -4.66811
H         -1.28786       -2.01358       -4.49536
H         -3.85034       -3.66877       -4.19971
H         -2.87130       -3.55368       -5.66762
H         -2.18640       -4.30132       -4.22773
H          0.35551       -4.65297       -1.23254
H         -0.65352       -4.69392        0.21509
H         -0.25189       -6.97091       -0.40496
H         -1.92360       -6.64712       -0.82935
H         -0.96837       -7.90143       -2.61349
H         -1.21076       -6.27363       -3.23188
H          1.20422       -5.77167       -2.98598
H          1.45577       -7.27233       -2.10870
H          2.26760       -7.63222       -4.31766
H          0.81923       -8.59018       -4.11957
H          0.78762       -7.62440       -6.31768
H         -0.51356       -6.91878       -5.39254
H          0.59056       -5.23887       -6.77683
H          0.72820       -4.82961       -5.07994
H          2.80541       -4.33573       -6.24042
H          3.09395       -5.57590       -5.04038
H          3.18528       -7.35343       -6.83622
H          4.16859       -6.55672       -8.89177
H          3.78616       -4.79904       -8.43501

--Link1--
%chk=JID_10255.chk
%mem=8GB
%nprocshared=4
# B3LYP/6-311++G(d,p) empiricaldispersion=gd3bj scf=xqc pop=npa geom=check

CID_129181073_JID_10255_Energie_neutraal

0 1

--Link1--
%chk=JID_10255.chk
%mem=8GB
%nprocshared=4
# B3LYP/6-311++G(d,p) empiricaldispersion=gd3bj scf=xqc pop=npa geom=check

CID_129181073_JID_10255_Energie_kation

1 2

--Link1--
%chk=JID_10255.chk
%mem=8GB
%nprocshared=4
# B3LYP/6-311++G(d,p) empiricaldispersion=gd3bj scf=xqc pop=npa geom=check

CID_129181073_JID_10255_Energie_anion

-1 2
