%chk=JID_2878.chk
%mem=8GB
%nprocshared=4
# opt freq B3LYP/6-31G(d) empiricaldispersion=gd3bj scf=xqc

CID_64664783_JID_2878_neutraal

0 1
C          1.09478       -0.00036       -0.03190
C          0.83570        0.21592       -1.52469
C          1.78816       -0.65876       -2.33815
N         -0.57677       -0.08261       -1.77005
C         -1.12073        0.43673       -3.02337
C         -1.11134       -0.54114       -4.21997
C         -1.91078       -1.81845       -3.92215
C         -1.68951        0.11322       -5.49635
C         -1.00417        1.39980       -5.98225
C          0.51306        1.32201       -6.15878
C          0.91578        0.31789       -7.15343
C          1.25512       -0.50419       -7.95993
H          0.92344       -1.04244        0.26174
H          0.44138        0.63524        0.57665
H          2.12954        0.25418        0.22262
H          1.04183        1.27157       -1.73960
H          1.54590       -1.72240       -2.23568
H          1.76083       -0.39930       -3.39913
H          2.82252       -0.52011       -2.00422
H         -0.76251       -1.07639       -1.65949
H         -2.16375        0.71332       -2.82326
H         -0.61737        1.37436       -3.28093
H         -0.08524       -0.85086       -4.43662
H         -2.93808       -1.58300       -3.62417
H         -1.95591       -2.46342       -4.80665
H         -1.44853       -2.40652       -3.12390
H         -1.66269       -0.62181       -6.31140
H         -2.75195        0.33942       -5.33469
H         -1.46299        1.68521       -6.93830
H         -1.23460        2.21629       -5.28753
H          0.87587        2.30559       -6.48102
H          1.00089        1.11724       -5.20063
H          1.55867       -1.23450       -8.67432

--Link1--
%chk=JID_2878.chk
%mem=8GB
%nprocshared=4
# B3LYP/6-311++G(d,p) empiricaldispersion=gd3bj scf=xqc pop=npa geom=check

CID_64664783_JID_2878_Energie_neutraal

0 1

--Link1--
%chk=JID_2878.chk
%mem=8GB
%nprocshared=4
# B3LYP/6-311++G(d,p) empiricaldispersion=gd3bj scf=xqc pop=npa geom=check

CID_64664783_JID_2878_Energie_kation

1 2

--Link1--
%chk=JID_2878.chk
%mem=8GB
%nprocshared=4
# B3LYP/6-311++G(d,p) empiricaldispersion=gd3bj scf=xqc pop=npa geom=check

CID_64664783_JID_2878_Energie_anion

-1 2
