%chk=JID_5005.chk
%mem=8GB
%nprocshared=4
# opt freq B3LYP/6-31G(d) empiricaldispersion=gd3bj scf=xqc

CID_62573291_JID_5005_neutraal

0 1
C          1.06780       -0.00765        0.07311
C          0.13506       -1.20367        0.20781
C          0.84426       -2.56735        0.15732
N          1.17922       -3.16215        1.45059
C          1.45143       -4.59942        1.41938
C          2.49430       -5.08783        0.41912
C          1.98718       -2.38987        2.39734
C          3.52407       -2.30695        2.22739
N          3.94761       -1.79456        0.92097
C          5.40363       -1.62905        0.81274
C          5.81158       -1.64630       -0.67309
C          5.30656       -0.42614       -1.44435
C          5.73987        0.87706       -0.77940
C          5.35583        0.92234        0.69707
C          5.86663       -0.30753        1.45048
H          1.74789        0.09142        0.92043
H          0.48165        0.91546        0.01512
H          1.66574       -0.08006       -0.84092
H         -0.46994       -1.11137        1.11753
H         -0.57326       -1.16051       -0.62984
H          0.13403       -3.24818       -0.33210
H          1.70694       -2.51521       -0.51335
H          1.72467       -4.95396        2.42121
H          0.50751       -5.11071        1.18978
H          3.48724       -4.68461        0.62702
H          2.57004       -6.17936        0.47314
H          2.22316       -4.83343       -0.60990
H          1.58646       -1.37514        2.48508
H          1.80735       -2.81409        3.39530
H          3.89890       -1.65685        3.02589
H          3.95790       -3.29874        2.39949
H          3.62584       -2.45455        0.21551
H          5.90955       -2.47030        1.30318
H          6.90718       -1.67767       -0.73814
H          5.45024       -2.56167       -1.15831
H          4.21292       -0.45572       -1.51688
H          5.69017       -0.45813       -2.47056
H          5.28969        1.72695       -1.30467
H          6.82756        0.98574       -0.87293
H          4.26569        0.99265        0.79117
H          5.76991        1.82862        1.15364
H          5.55764       -0.24518        2.49970
H          6.96439       -0.28572        1.45684

--Link1--
%chk=JID_5005.chk
%mem=8GB
%nprocshared=4
# B3LYP/6-311++G(d,p) empiricaldispersion=gd3bj scf=xqc pop=npa geom=check

CID_62573291_JID_5005_Energie_neutraal

0 1

--Link1--
%chk=JID_5005.chk
%mem=8GB
%nprocshared=4
# B3LYP/6-311++G(d,p) empiricaldispersion=gd3bj scf=xqc pop=npa geom=check

CID_62573291_JID_5005_Energie_kation

1 2

--Link1--
%chk=JID_5005.chk
%mem=8GB
%nprocshared=4
# B3LYP/6-311++G(d,p) empiricaldispersion=gd3bj scf=xqc pop=npa geom=check

CID_62573291_JID_5005_Energie_anion

-1 2
