%chk=JID_10409.chk
%mem=8GB
%nprocshared=4
# opt freq B3LYP/6-31G(d) empiricaldispersion=gd3bj scf=xqc

CID_128731813_JID_10409_neutraal

0 1
C          1.06242       -0.00449       -0.07799
C          0.33635        1.26261        0.36621
C          0.59587        2.35365       -0.67744
C         -1.18349        1.06731        0.53045
C         -1.95636        1.83264        1.67073
C         -2.92706        2.94548        1.25383
C         -2.22825        4.29827        1.25972
O         -1.63879        4.55829        2.53368
C         -0.62397        3.60434        2.84929
C         -1.23491        2.21695        2.97574
C         -2.68291        0.48833        1.85080
N         -1.56103       -0.16940        1.21588
C         -1.81089       -1.35462        0.48982
N         -1.04623       -2.42320        0.77073
C         -1.27070       -3.56056        0.09123
C         -2.24818       -3.68497       -0.85738
C         -2.99044       -2.54800       -1.07348
N         -2.78995       -1.38009       -0.42676
C         -4.06263       -2.55414       -2.02846
N         -4.92377       -2.60363       -2.80734
H          0.60421       -0.44173       -0.97138
H          1.06327       -0.75605        0.71688
H          2.11258        0.20691       -0.30891
H          0.79220        1.57092        1.31145
H          0.18689        2.07210       -1.65481
H          0.13815        3.30056       -0.39074
H          1.66957        2.53100       -0.80095
H         -1.69422        1.12657       -0.44445
H         -3.75547        2.98242        1.97327
H         -3.36069        2.75088        0.26668
H         -2.95907        5.09069        1.06882
H         -1.46433        4.37257        0.48266
H          0.16539        3.64989        2.09303
H         -0.17878        3.89799        3.80543
H         -1.96724        2.23683        3.79387
H         -0.46830        1.48341        3.24883
H         -2.84313        0.13874        2.87519
H         -3.62275        0.39238        1.29225
H         -0.61849       -4.39034        0.34845
H         -2.41906       -4.61195       -1.38768

--Link1--
%chk=JID_10409.chk
%mem=8GB
%nprocshared=4
# B3LYP/6-311++G(d,p) empiricaldispersion=gd3bj scf=xqc pop=npa geom=check

CID_128731813_JID_10409_Energie_neutraal

0 1

--Link1--
%chk=JID_10409.chk
%mem=8GB
%nprocshared=4
# B3LYP/6-311++G(d,p) empiricaldispersion=gd3bj scf=xqc pop=npa geom=check

CID_128731813_JID_10409_Energie_kation

1 2

--Link1--
%chk=JID_10409.chk
%mem=8GB
%nprocshared=4
# B3LYP/6-311++G(d,p) empiricaldispersion=gd3bj scf=xqc pop=npa geom=check

CID_128731813_JID_10409_Energie_anion

-1 2
