%chk=JID_8224.chk
%mem=8GB
%nprocshared=4
# opt=(cartesian,calcfc,maxcycle=500) freq B3LYP/6-31G(d) empiricaldispersion=gd3bj scf=xqc

CID_152060931_JID_8224_neutraal

0 1
O       -0.0607 -0.4602 0.1598
N       -3.5470 -0.6506 0.1704
N       4.4961  0.0789  -1.2989
N       5.2187  -0.7782 -0.7449
N       5.8823  -1.5606 -0.2449
C       -5.4421 0.4898  -0.9621
C       -4.4450 -0.6807 -0.9792
C       -2.6471 -1.7948 0.1554
C       -1.7100 -1.7473 1.3578
C       -4.6871 1.8180  -1.0503
C       -6.3254 0.4772  0.2881
C       -0.8468 -0.4918 1.3436
C       1.1355  0.2052  0.2298
C       2.2058  -0.1966 -0.5696
C       1.2822  1.2852  1.1002
C       3.4225  0.4815  -0.4985
C       2.4990  1.9634  1.1713
C       3.5691  1.5615  0.3720
H       -6.0887 0.3974  -1.8436
H       -3.8635 -0.6399 -1.9087
H       -5.0109 -1.6209 -0.9895
H       -2.0636 -1.8138 -0.7727
H       -3.2214 -2.7283 0.1996
H       -4.0834 -0.6604 1.0364
H       -2.2818 -1.7938 2.2922
H       -1.0632 -2.6324 1.3231
H       -4.0427 1.8431  -1.9356
H       -5.3928 2.6520  -1.1323
H       -4.0634 2.0003  -0.1688
H       -7.1130 1.2339  0.2010
H       -6.8129 -0.4955 0.4108
H       -5.7630 0.6991  1.2006
H       -1.4637 0.4122  1.4004
H       -0.2123 -0.5373 2.2388
H       2.0865  -1.0387 -1.2472
H       0.4677  1.6473  1.7203
H       2.6119  2.8083  1.8444
H       4.5124  2.0979  0.4334

--Link1--
%chk=JID_8224.chk
%mem=8GB
%nprocshared=4
# B3LYP/6-311++G(d,p) empiricaldispersion=gd3bj scf=xqc pop=npa geom=check

CID_152060931_JID_8224_Energie_neutraal

0 1

--Link1--
%chk=JID_8224.chk
%mem=8GB
%nprocshared=4
# B3LYP/6-311++G(d,p) empiricaldispersion=gd3bj scf=xqc pop=npa geom=check

CID_152060931_JID_8224_Energie_kation

1 2

--Link1--
%chk=JID_8224.chk
%mem=8GB
%nprocshared=4
# B3LYP/6-311++G(d,p) empiricaldispersion=gd3bj scf=xqc pop=npa geom=check

CID_152060931_JID_8224_Energie_anion

-1 2
