%chk=JID_4076.chk
%mem=8GB
%nprocshared=4
# opt freq B3LYP/6-31G(d) empiricaldispersion=gd3bj scf=xqc

CID_104394506_JID_4076_neutraal

0 1
C          0.95385        0.08525       -0.02455
C          0.62240       -1.22691        0.67354
C          1.43288       -1.45161        1.95202
C          1.03088       -0.56064        3.08027
N          1.66077        0.60182        3.28872
N          1.04548        1.11699        4.36547
C          0.05611        0.31851        4.86889
C          0.01963       -0.78449        4.04511
C         -0.73763        0.71006        6.05811
N          0.17194        1.02335        7.15552
C         -0.54149        1.49284        8.36420
C         -1.20473        0.34280        9.12568
C          0.46526        2.21882        9.29692
N          1.16575        3.29261        8.58577
H          0.66926        0.94732        0.58592
H          0.40889        0.15446       -0.97150
H          2.02392        0.15415       -0.24448
H         -0.45224       -1.26252        0.88894
H          0.83600       -2.04780       -0.02163
H          1.29620       -2.49313        2.27050
H          2.50358       -1.33495        1.74284
H          1.36047        2.00928        4.73145
H         -0.64099       -1.63634        4.12388
H         -1.34914        1.58375        5.80289
H         -1.41464       -0.10780        6.32758
H          0.70881        0.18594        7.38404
H         -1.30965        2.22261        8.07596
H         -0.47410       -0.42211        9.41161
H         -1.67749        0.71160       10.04258
H         -1.98486       -0.13957        8.52891
H         -0.05472        2.64265       10.16263
H          1.20675        1.50243        9.67134
H          2.03289        3.51149        9.07165
H          1.42913        2.91340        7.67267

--Link1--
%chk=JID_4076.chk
%mem=8GB
%nprocshared=4
# B3LYP/6-311++G(d,p) empiricaldispersion=gd3bj scf=xqc pop=npa geom=check

CID_104394506_JID_4076_Energie_neutraal

0 1

--Link1--
%chk=JID_4076.chk
%mem=8GB
%nprocshared=4
# B3LYP/6-311++G(d,p) empiricaldispersion=gd3bj scf=xqc pop=npa geom=check

CID_104394506_JID_4076_Energie_kation

1 2

--Link1--
%chk=JID_4076.chk
%mem=8GB
%nprocshared=4
# B3LYP/6-311++G(d,p) empiricaldispersion=gd3bj scf=xqc pop=npa geom=check

CID_104394506_JID_4076_Energie_anion

-1 2
