%chk=JID_3957.chk
%mem=8GB
%nprocshared=4
# opt freq B3LYP/6-31G(d) empiricaldispersion=gd3bj scf=xqc

CID_145011474_JID_3957_neutraal

0 1
C          0.98678        0.09237       -0.03597
C          0.11853        0.95819       -0.90948
O         -1.01516        0.60073       -1.22982
C          0.65809        2.31491       -1.31441
C          0.06655        3.44496       -0.47716
C          0.58984        3.53565        0.96280
C          2.10429        3.76364        1.10323
C          2.66904        5.00749        0.44878
C          2.04202        6.19903        0.43915
C          2.60130        7.42477       -0.22793
C          4.07938        7.32766       -0.63615
C          4.61517        5.92849       -0.71177
C          3.95589        4.87304       -0.21328
H          0.66241       -0.94875       -0.11995
H          0.90718        0.41343        1.00401
H          2.02707        0.14998       -0.36615
H          1.75139        2.30717       -1.29375
H          0.37933        2.46015       -2.36565
H          0.25275        4.39378       -0.99281
H         -1.02416        3.33147       -0.43478
H          0.04982        4.33911        1.47855
H          0.32612        2.61866        1.50212
H          2.35197        3.80579        2.17228
H          2.61632        2.87065        0.72402
H          1.07625        6.32075        0.92047
H          2.47416        8.28625        0.43862
H          1.99285        7.63131       -1.11745
H          4.21292        7.81970       -1.60693
H          4.69163        7.88802        0.08146
H          5.58600        5.78776       -1.17811
H          4.40011        3.88414       -0.28789

--Link1--
%chk=JID_3957.chk
%mem=8GB
%nprocshared=4
# B3LYP/6-311++G(d,p) empiricaldispersion=gd3bj scf=xqc pop=npa geom=check

CID_145011474_JID_3957_Energie_neutraal

0 1

--Link1--
%chk=JID_3957.chk
%mem=8GB
%nprocshared=4
# B3LYP/6-311++G(d,p) empiricaldispersion=gd3bj scf=xqc pop=npa geom=check

CID_145011474_JID_3957_Energie_kation

1 2

--Link1--
%chk=JID_3957.chk
%mem=8GB
%nprocshared=4
# B3LYP/6-311++G(d,p) empiricaldispersion=gd3bj scf=xqc pop=npa geom=check

CID_145011474_JID_3957_Energie_anion

-1 2
