%chk=JID_8994.chk
%mem=8GB
%nprocshared=4
# opt freq B3LYP/6-31G(d) empiricaldispersion=gd3bj scf=xqc

CID_63559806_JID_8994_neutraal

0 1
C          1.07146       -0.01208       -0.06890
C          0.21868        0.56966       -1.18621
C          0.82510        0.29606       -2.53946
C          1.56775        1.23642       -3.24840
C          2.02587        0.83132       -4.50306
N          1.83994       -0.41857       -4.95829
C          1.13941       -1.26908       -4.19172
N          0.61211       -0.95246       -3.00145
C          0.99116       -2.65785       -4.67205
C          2.07560       -3.26309       -5.34651
C          2.02317       -4.58435       -5.79468
C          0.87821       -5.33926       -5.58112
C         -0.21474       -4.77004       -4.93112
C         -0.18053       -3.43437       -4.48462
C         -1.40735       -2.88836       -3.80003
N          2.73833        1.74451       -5.30719
C          3.14651        1.22625       -6.60426
C          1.82369        2.61253       -2.70872
H          1.17672       -1.09753       -0.17172
H          0.61151        0.19190        0.90317
H          2.07617        0.42380       -0.06819
H         -0.77810        0.11207       -1.15191
H          0.05820        1.64038       -1.02490
H          2.98960       -2.69311       -5.51192
H          2.88003       -5.01989       -6.30115
H          0.83321       -6.37066       -5.92002
H         -1.10483       -5.37614       -4.77426
H         -1.25442       -2.85021       -2.71716
H         -1.65644       -1.89185       -4.17880
H         -2.28193       -3.52005       -3.99144
H          2.18734        2.59239       -5.40548
H          2.28254        0.94227       -7.21531
H          3.68893        2.00934       -7.14379
H          3.82458        0.37208       -6.50102
H          2.67346        3.10213       -3.19427
H          0.93852        3.24088       -2.84856
H          2.07493        2.57527       -1.64370

--Link1--
%chk=JID_8994.chk
%mem=8GB
%nprocshared=4
# B3LYP/6-311++G(d,p) empiricaldispersion=gd3bj scf=xqc pop=npa geom=check

CID_63559806_JID_8994_Energie_neutraal

0 1

--Link1--
%chk=JID_8994.chk
%mem=8GB
%nprocshared=4
# B3LYP/6-311++G(d,p) empiricaldispersion=gd3bj scf=xqc pop=npa geom=check

CID_63559806_JID_8994_Energie_kation

1 2

--Link1--
%chk=JID_8994.chk
%mem=8GB
%nprocshared=4
# B3LYP/6-311++G(d,p) empiricaldispersion=gd3bj scf=xqc pop=npa geom=check

CID_63559806_JID_8994_Energie_anion

-1 2
