%chk=JID_6042.chk
%mem=8GB
%nprocshared=4
# opt freq B3LYP/6-31G(d) empiricaldispersion=gd3bj scf=xqc

CID_131481615_JID_6042_neutraal

0 1
C          1.08249        0.04589       -0.03302
C          1.38814       -1.26979        0.65952
O          1.83245       -1.03556        2.00374
C          3.14712       -0.72906        2.13992
O          3.96354       -0.64939        1.23644
C          3.46503       -0.45052        3.56433
C          4.65546        0.23192        3.85210
C          5.00987        0.52765        5.17238
C          4.15779        0.11320        6.20852
C          2.96043       -0.54696        5.93103
C          2.61626       -0.83783        4.61002
O          4.41258        0.40362        7.52387
C          5.60635       -0.24033        7.97970
C          6.84171        0.59590        7.68138
C          7.18107        0.59922        6.19591
N          6.17545        1.29496        5.39240
H          0.35756        0.62631        0.54710
H          0.67566       -0.12877       -1.03309
H          1.98189        0.66237       -0.12650
H          0.47480       -1.87017        0.72576
H          2.12179       -1.85996        0.09838
H          5.30873        0.55348        3.04277
H          2.29860       -0.83450        6.74340
H          1.68537       -1.36232        4.40971
H          5.69295       -1.26156        7.58404
H          5.50484       -0.33690        9.06666
H          6.68543        1.62499        8.02691
H          7.69326        0.18331        8.23428
H          8.12929        1.13260        6.06141
H          7.34582       -0.41995        5.82311
H          5.88680        2.15128        5.87066

--Link1--
%chk=JID_6042.chk
%mem=8GB
%nprocshared=4
# B3LYP/6-311++G(d,p) empiricaldispersion=gd3bj scf=xqc pop=npa geom=check

CID_131481615_JID_6042_Energie_neutraal

0 1

--Link1--
%chk=JID_6042.chk
%mem=8GB
%nprocshared=4
# B3LYP/6-311++G(d,p) empiricaldispersion=gd3bj scf=xqc pop=npa geom=check

CID_131481615_JID_6042_Energie_kation

1 2

--Link1--
%chk=JID_6042.chk
%mem=8GB
%nprocshared=4
# B3LYP/6-311++G(d,p) empiricaldispersion=gd3bj scf=xqc pop=npa geom=check

CID_131481615_JID_6042_Energie_anion

-1 2
