%chk=JID_10721.chk
%mem=8GB
%nprocshared=4
# opt freq B3LYP/6-31G(d) empiricaldispersion=gd3bj scf=xqc

CID_127293367_JID_10721_neutraal

0 1
C          0.92758       -0.04320        0.05375
N          0.27224        1.10823        0.66573
C         -1.20366        1.07890        0.61799
C         -1.80284        1.96320       -0.46540
C         -3.07032        2.48563        0.17356
O         -2.79209        2.57399        1.57608
C         -1.94355        1.46263        1.90147
C          1.08433        2.20427        0.96156
O          2.30512        2.16591        0.77950
C          0.46623        3.44367        1.58615
C          1.31058        4.69247        1.33330
N          1.31026        5.07383       -0.07255
C          0.30536        5.67218       -0.78027
O          0.30913        5.55961       -2.00519
C         -0.75177        6.47899       -0.02178
C         -0.16695        7.79612        0.50778
C         -0.00140        8.85378       -0.58151
C         -1.30941        9.10458       -1.32075
C         -1.86552        7.81802       -1.91645
C         -2.01459        6.71790       -0.86605
H          0.72068       -0.03112       -1.02069
H          0.52643       -0.96039        0.49585
H          2.01007       -0.04122        0.20500
H         -1.48519        0.03792        0.40806
H         -2.00400        1.41815       -1.39311
H         -1.14267        2.79589       -0.72808
H         -3.36055        3.46819       -0.20825
H         -3.90532        1.79076        0.03026
H         -2.59151        0.64089        2.22854
H         -1.29725        1.72222        2.74276
H         -0.53625        3.62562        1.21087
H          0.40860        3.26864        2.66584
H          0.91905        5.52091        1.92972
H          2.35494        4.54097        1.62529
H          1.94995        4.55803       -0.67005
H         -1.06567        5.86937        0.83336
H         -0.83736        8.19132        1.28189
H          0.80387        7.63501        0.98882
H          0.77003        8.53589       -1.29326
H          0.34900        9.78947       -0.13103
H         -1.14870        9.84000       -2.11708
H         -2.04429        9.53657       -0.63042
H         -1.20857        7.47937       -2.72539
H         -2.84141        8.01824       -2.37385
H         -2.32613        5.78816       -1.35751
H         -2.83222        6.99972       -0.18947

--Link1--
%chk=JID_10721.chk
%mem=8GB
%nprocshared=4
# B3LYP/6-311++G(d,p) empiricaldispersion=gd3bj scf=xqc pop=npa geom=check

CID_127293367_JID_10721_Energie_neutraal

0 1

--Link1--
%chk=JID_10721.chk
%mem=8GB
%nprocshared=4
# B3LYP/6-311++G(d,p) empiricaldispersion=gd3bj scf=xqc pop=npa geom=check

CID_127293367_JID_10721_Energie_kation

1 2

--Link1--
%chk=JID_10721.chk
%mem=8GB
%nprocshared=4
# B3LYP/6-311++G(d,p) empiricaldispersion=gd3bj scf=xqc pop=npa geom=check

CID_127293367_JID_10721_Energie_anion

-1 2
