%chk=JID_3645.chk
%mem=8GB
%nprocshared=4
# opt freq B3LYP/6-31G(d) empiricaldispersion=gd3bj scf=xqc

CID_23374598_JID_3645_neutraal

0 1
C          1.06384        0.05117        0.05750
O          1.18661        0.02461        1.46831
C          1.81558       -1.14250        2.00311
C          0.97445       -2.42348        1.84280
C          1.04619       -3.20789        0.52257
C          2.39307       -3.86382        0.18605
N          2.89515       -4.73488        1.26144
C          4.31146       -5.07360        1.05246
C          4.31409       -6.24626        0.08561
C          2.96973       -6.92787        0.29863
C          2.22348       -6.04283        1.28955
O          3.14872       -1.29922        1.53574
C          4.01780       -0.29558        2.04080
H          0.92181        1.09202       -0.24787
H          0.17282       -0.50091       -0.25003
H          1.95458       -0.33251       -0.44769
H          1.85713       -0.96243        3.08554
H          1.26139       -3.11180        2.64796
H         -0.07727       -2.16476        2.02133
H          0.27561       -3.98843        0.56395
H          0.75774       -2.57217       -0.31805
H          2.28549       -4.41592       -0.75677
H          3.11716       -3.07082       -0.02720
H          4.74030       -5.38688        2.01258
H          4.91857       -4.23332        0.69763
H          4.39253       -5.89416       -0.94956
H          5.15108       -6.92598        0.27332
H          2.42967       -6.99560       -0.65264
H          3.09210       -7.94310        0.68937
H          1.15008       -6.00226        1.08188
H          2.32823       -6.46141        2.29873
H          3.69761        0.69903        1.71674
H          4.06512       -0.33995        3.13323
H          5.01987       -0.48121        1.64478

--Link1--
%chk=JID_3645.chk
%mem=8GB
%nprocshared=4
# B3LYP/6-311++G(d,p) empiricaldispersion=gd3bj scf=xqc pop=npa geom=check

CID_23374598_JID_3645_Energie_neutraal

0 1

--Link1--
%chk=JID_3645.chk
%mem=8GB
%nprocshared=4
# B3LYP/6-311++G(d,p) empiricaldispersion=gd3bj scf=xqc pop=npa geom=check

CID_23374598_JID_3645_Energie_kation

1 2

--Link1--
%chk=JID_3645.chk
%mem=8GB
%nprocshared=4
# B3LYP/6-311++G(d,p) empiricaldispersion=gd3bj scf=xqc pop=npa geom=check

CID_23374598_JID_3645_Energie_anion

-1 2
