%chk=JID_131.chk
%mem=8GB
%nprocshared=4
# opt freq B3LYP/6-31G(d) empiricaldispersion=gd3bj scf=xqc

CID_143358938_JID_131_neutraal

0 1
C          1.02330        0.01260        0.09643
C          0.89945       -0.47098        1.52010
C         -0.04387        0.04296        2.32344
N          1.77164       -1.44584        1.97056
C          2.99087       -1.86062        1.31860
N          3.62811       -2.80678        2.20990
C          2.99343       -4.11251        2.34219
C          4.91715       -2.52530        2.63834
O          5.50787       -1.48258        2.35485
C          5.59926       -3.55703        3.50053
H          0.24999        0.74505       -0.15955
H          0.92516       -0.82560       -0.60142
H          1.99509        0.49086       -0.06362
H         -0.16068       -0.29248        3.34823
H         -0.73144        0.80767        1.97727
H          1.85397       -1.48564        2.98159
H          2.78263       -2.36366        0.36740
H          3.62706       -0.99352        1.11885
H          3.17740       -4.67998        1.42501
H          3.39038       -4.67595        3.18835
H          1.91603       -3.99663        2.48885
H          5.03713       -3.70500        4.42625
H          5.70722       -4.49821        2.95567
H          6.60010       -3.20113        3.76484

--Link1--
%chk=JID_131.chk
%mem=8GB
%nprocshared=4
# B3LYP/6-311++G(d,p) empiricaldispersion=gd3bj scf=xqc pop=npa geom=check

CID_143358938_JID_131_Energie_neutraal

0 1

--Link1--
%chk=JID_131.chk
%mem=8GB
%nprocshared=4
# B3LYP/6-311++G(d,p) empiricaldispersion=gd3bj scf=xqc pop=npa geom=check

CID_143358938_JID_131_Energie_kation

1 2

--Link1--
%chk=JID_131.chk
%mem=8GB
%nprocshared=4
# B3LYP/6-311++G(d,p) empiricaldispersion=gd3bj scf=xqc pop=npa geom=check

CID_143358938_JID_131_Energie_anion

-1 2
