%chk=JID_5362.chk
%mem=8GB
%nprocshared=4
# opt freq B3LYP/6-31G(d) empiricaldispersion=gd3bj scf=xqc

CID_117960284_JID_5362_neutraal

0 1
C          0.98503       -0.02351       -0.09604
C          0.66071        1.45673       -0.18808
O          1.37604        2.05222       -1.27934
C          2.65749        2.42645       -1.01700
O          3.20487        2.33825        0.07685
C          3.34606        2.99343       -2.25243
O          2.79667        2.64973       -3.51695
C          3.24993        1.49133       -4.08655
C          3.24461        1.47340       -5.48383
C          3.64081        0.33806       -6.20457
C          4.12911       -0.77494       -5.49905
C          4.11011       -0.76149       -4.09480
C          3.66533        0.36041       -3.39163
C          4.66334       -1.98735       -6.21046
N          3.75401        0.42853       -7.60193
H          0.77038       -0.52312       -1.04651
H          0.39809       -0.50029        0.69402
H          2.04724       -0.18314        0.11407
H         -0.40652        1.58751       -0.39475
H          0.87234        1.97449        0.75449
H          3.27184        4.08358       -2.16748
H          4.41380        2.74319       -2.21161
H          2.93193        2.36877       -6.01524
H          4.45305       -1.62893       -3.53439
H          3.65746        0.31148       -2.30880
H          3.88296       -2.43652       -6.83315
H          5.51952       -1.71486       -6.83582
H          5.00186       -2.75294       -5.50413
H          3.12248        1.10770       -8.01532
H          3.71164       -0.46620       -8.07732

--Link1--
%chk=JID_5362.chk
%mem=8GB
%nprocshared=4
# B3LYP/6-311++G(d,p) empiricaldispersion=gd3bj scf=xqc pop=npa geom=check

CID_117960284_JID_5362_Energie_neutraal

0 1

--Link1--
%chk=JID_5362.chk
%mem=8GB
%nprocshared=4
# B3LYP/6-311++G(d,p) empiricaldispersion=gd3bj scf=xqc pop=npa geom=check

CID_117960284_JID_5362_Energie_kation

1 2

--Link1--
%chk=JID_5362.chk
%mem=8GB
%nprocshared=4
# B3LYP/6-311++G(d,p) empiricaldispersion=gd3bj scf=xqc pop=npa geom=check

CID_117960284_JID_5362_Energie_anion

-1 2
