%chk=JID_7984.chk
%mem=8GB
%nprocshared=4
# opt freq B3LYP/6-31G(d) empiricaldispersion=gd3bj scf=xqc

CID_9670975_JID_7984_neutraal

0 1
C         -0.02900        0.88300        0.00000
C         -0.99913        0.21282       -0.91739
C          0.20120       -0.55450       -0.41868
C          1.44087       -0.86920       -1.19352
N          2.57358       -1.11991       -0.59632
N          2.58953       -1.07275        0.75498
C          1.41614       -0.91233       -2.69214
C          1.37971        0.45243       -3.34017
O          2.07694        1.41984       -3.09911
C          0.31730        0.45933       -4.34442
C         -0.06998        1.49209       -5.17743
C         -1.16570        1.26597       -6.01464
C         -1.84437        0.03103       -5.99763
C         -1.43987       -0.99851       -5.14217
C         -0.35192       -0.75660       -4.32503
C          0.23812       -1.62774       -3.30736
O         -0.18911       -2.73488       -3.04060
H         -0.33127        1.06501        1.02512
H          0.61566        1.65226       -0.41272
H         -1.96723       -0.06590       -0.51015
H         -1.06693        0.61387       -1.91573
H         -0.03291       -1.32514        0.31470
H          2.45061       -0.11581        1.08882
H          3.51604       -1.34402        1.09310
H          2.32098       -1.41537       -3.05770
H          0.45108        2.44492       -5.17013
H         -1.50536        2.05582       -6.68274
H         -2.70021       -0.11853       -6.65395
H         -1.96577       -1.94806       -5.11058

--Link1--
%chk=JID_7984.chk
%mem=8GB
%nprocshared=4
# B3LYP/6-311++G(d,p) empiricaldispersion=gd3bj scf=xqc pop=npa geom=check

CID_9670975_JID_7984_Energie_neutraal

0 1

--Link1--
%chk=JID_7984.chk
%mem=8GB
%nprocshared=4
# B3LYP/6-311++G(d,p) empiricaldispersion=gd3bj scf=xqc pop=npa geom=check

CID_9670975_JID_7984_Energie_kation

1 2

--Link1--
%chk=JID_7984.chk
%mem=8GB
%nprocshared=4
# B3LYP/6-311++G(d,p) empiricaldispersion=gd3bj scf=xqc pop=npa geom=check

CID_9670975_JID_7984_Energie_anion

-1 2
