%chk=JID_10156.chk
%mem=8GB
%nprocshared=4
# opt freq B3LYP/6-31G(d) empiricaldispersion=gd3bj scf=xqc

CID_107784560_JID_10156_neutraal

0 1
C          2.49200        0.00400       -0.01400
C          1.03223       -0.14413       -0.31615
C          0.37430       -1.35824       -0.07038
C         -0.99045       -1.51859       -0.36049
C         -1.69617       -0.40850       -0.85630
C         -1.05636        0.81151       -1.07384
C          0.30312        0.94282       -0.80625
C         -1.72364       -2.84230       -0.19665
C         -2.05901       -3.52018       -1.55411
S         -0.63627       -4.31880       -2.39544
C          0.15929       -2.90896       -3.11684
N         -0.63720       -2.04688       -3.65416
C         -0.03801       -0.93175       -4.19809
O         -0.65285       -0.16741       -4.93558
C          1.43949       -0.58954       -3.90185
O          1.92883        0.51401       -4.09309
N          2.16616       -1.64420       -3.39896
N          1.55018       -2.86707       -3.08220
C          2.40248       -3.82929       -2.39780
N         -1.04216       -3.77511        0.72197
H          2.62851        0.37242        1.00725
H          3.01218       -0.95432       -0.11657
H          2.96539        0.70383       -0.71079
H          0.93973       -2.18876        0.34528
H         -2.75611       -0.48868       -1.08997
H         -1.61719        1.65744       -1.46402
H          0.79086        1.89812       -0.98949
H         -2.67817       -2.59797        0.28930
H         -2.77122       -4.33148       -1.35966
H         -2.57027       -2.83099       -2.23389
H          3.11793       -1.47006       -3.09927
H          3.46093       -3.65118       -2.62026
H          2.27171       -3.75897       -1.31321
H          2.18471       -4.85173       -2.72250
H         -1.69263       -4.52101        0.96757
H         -0.29868       -4.23931        0.19996

--Link1--
%chk=JID_10156.chk
%mem=8GB
%nprocshared=4
# B3LYP/6-311++G(d,p) empiricaldispersion=gd3bj scf=xqc pop=npa geom=check

CID_107784560_JID_10156_Energie_neutraal

0 1

--Link1--
%chk=JID_10156.chk
%mem=8GB
%nprocshared=4
# B3LYP/6-311++G(d,p) empiricaldispersion=gd3bj scf=xqc pop=npa geom=check

CID_107784560_JID_10156_Energie_kation

1 2

--Link1--
%chk=JID_10156.chk
%mem=8GB
%nprocshared=4
# B3LYP/6-311++G(d,p) empiricaldispersion=gd3bj scf=xqc pop=npa geom=check

CID_107784560_JID_10156_Energie_anion

-1 2
