%chk=JID_6938.chk
%mem=8GB
%nprocshared=4
# opt freq B3LYP/6-31G(d) empiricaldispersion=gd3bj scf=xqc

CID_129503835_JID_6938_neutraal

0 1
C          0.92441        0.05641       -0.03323
C          0.67187       -0.77672        1.23968
C          1.15170       -0.03528        2.52558
C          0.53512        1.32199        2.79907
C          1.15137        2.49210        2.33234
C          0.57877        3.74139        2.57779
C         -0.61233        3.83553        3.29396
C         -1.23019        2.68112        3.76853
C         -0.65907        1.43097        3.52581
C         -0.80568       -1.00779        1.33641
N         -1.94497       -1.21361        1.43405
N          1.31756       -2.11716        1.12417
C          2.76514       -2.10540        0.87382
C          3.58750       -2.23014        2.17659
N          4.36581       -3.32181        1.54675
C          3.22680       -3.56509        0.62823
H          0.26705        0.93314       -0.07989
H          0.72051       -0.52974       -0.93820
H          1.95558        0.41992       -0.09105
H          0.97610       -0.66924        3.40704
H          2.23863        0.10933        2.48687
H          2.08340        2.44340        1.77376
H          1.06193        4.64311        2.21028
H         -1.05943        4.80790        3.48333
H         -2.16039        2.75227        4.32692
H         -1.16250        0.54438        3.90778
H          1.03059       -2.70371        1.91089
H          3.15357       -1.40540        0.12825
H          4.18436       -1.35119        2.43913
H          3.04140       -2.55668        3.06984
H          5.20360       -2.99632        1.06274
H          2.55859       -4.35815        0.98753
H          3.51528       -3.79987       -0.40103

--Link1--
%chk=JID_6938.chk
%mem=8GB
%nprocshared=4
# B3LYP/6-311++G(d,p) empiricaldispersion=gd3bj scf=xqc pop=npa geom=check

CID_129503835_JID_6938_Energie_neutraal

0 1

--Link1--
%chk=JID_6938.chk
%mem=8GB
%nprocshared=4
# B3LYP/6-311++G(d,p) empiricaldispersion=gd3bj scf=xqc pop=npa geom=check

CID_129503835_JID_6938_Energie_kation

1 2

--Link1--
%chk=JID_6938.chk
%mem=8GB
%nprocshared=4
# B3LYP/6-311++G(d,p) empiricaldispersion=gd3bj scf=xqc pop=npa geom=check

CID_129503835_JID_6938_Energie_anion

-1 2
