%chk=JID_9880.chk
%mem=8GB
%nprocshared=4
# opt freq B3LYP/6-31G(d) empiricaldispersion=gd3bj scf=xqc

CID_133454712_JID_9880_neutraal

0 1
C          1.05566       -0.08293        0.00506
N          0.94764       -0.20565        1.43995
C          0.51902        0.74712        2.32245
O          0.78956        0.59435        3.51301
C         -0.29550        1.92657        1.80176
C         -0.26896        3.11411        2.77261
C         -1.33040        3.01383        3.86024
C         -2.70892        2.88271        3.23316
N         -2.77973        1.69054        2.37336
C         -1.70983        1.50218        1.37499
C         -3.37453        0.57177        2.98409
C         -4.77251        0.47073        3.17691
C         -5.27623       -0.63563        3.86113
N         -4.51872       -1.64650        4.34833
C         -3.19325       -1.54074        4.14762
C         -2.59290       -0.47759        3.48626
C         -5.78723        1.42941        2.66355
O         -6.92153        1.48098        3.12397
N         -5.42069        2.23744        1.62736
H          0.11320        0.25946       -0.42553
H          1.31460       -1.06103       -0.40688
H          1.84448        0.63757       -0.22627
H          1.52760       -0.90595        1.89062
H          0.23874        2.26501        0.90317
H          0.72037        3.21943        3.23368
H         -0.44221        4.03580        2.20138
H         -1.12586        2.16063        4.51646
H         -1.29677        3.91364        4.48498
H         -3.47226        2.87009        4.02108
H         -2.91791        3.76592        2.61663
H         -1.98951        2.13708        0.52343
H         -1.72946        0.47853        0.98229
H         -6.34464       -0.75253        4.03057
H         -2.59474       -2.35117        4.55479
H         -1.51472       -0.47208        3.41384
H         -4.44939        2.26184        1.33415
H         -6.07052        2.93779        1.30197

--Link1--
%chk=JID_9880.chk
%mem=8GB
%nprocshared=4
# B3LYP/6-311++G(d,p) empiricaldispersion=gd3bj scf=xqc pop=npa geom=check

CID_133454712_JID_9880_Energie_neutraal

0 1

--Link1--
%chk=JID_9880.chk
%mem=8GB
%nprocshared=4
# B3LYP/6-311++G(d,p) empiricaldispersion=gd3bj scf=xqc pop=npa geom=check

CID_133454712_JID_9880_Energie_kation

1 2

--Link1--
%chk=JID_9880.chk
%mem=8GB
%nprocshared=4
# B3LYP/6-311++G(d,p) empiricaldispersion=gd3bj scf=xqc pop=npa geom=check

CID_133454712_JID_9880_Energie_anion

-1 2
