%chk=JID_9628.chk
%mem=8GB
%nprocshared=4
# opt freq B3LYP/6-31G(d) empiricaldispersion=gd3bj scf=xqc

CID_95797505_JID_9628_neutraal

0 1
C          1.04995        0.06766        0.05410
C          0.44263        0.58358       -1.24725
N          0.92907       -0.07012       -2.44938
C          0.64499       -1.39573       -2.75739
C          1.08414       -1.65788       -4.02571
C          1.63182       -0.46290       -4.53384
C          1.55598        0.48687       -3.54391
C          2.04795        1.82963       -3.78512
O          2.10159        2.69231       -2.91295
N          2.45439        2.04635       -5.12974
N          2.53357        1.04111       -6.11609
C          2.15219       -0.16810       -5.82602
C          2.84080        3.39292       -5.55647
C          1.63653        4.31690       -5.47652
C          0.60351        5.10949       -5.40793
S          0.77681       -3.28756       -4.51056
C          0.03598       -3.60674       -2.99119
C          0.01569       -2.51591       -2.14344
C         -0.50427       -4.97389       -2.72717
H          0.82249       -0.98840        0.22177
H          0.65786        0.63545        0.90365
H          2.13945        0.17705        0.04132
H         -0.64500        0.44419       -1.23140
H          0.62195        1.65730       -1.33307
H          2.21500       -0.96339       -6.58531
H          3.62567        3.75780       -4.88562
H          3.22821        3.36338       -6.57991
H         -0.24224        5.75419       -5.34455
H         -0.41889       -2.52820       -1.15219
H         -1.28213       -5.23111       -3.45365
H          0.29208       -5.72329       -2.78513
H         -0.94701       -5.03303       -1.72732

--Link1--
%chk=JID_9628.chk
%mem=8GB
%nprocshared=4
# B3LYP/6-311++G(d,p) empiricaldispersion=gd3bj scf=xqc pop=npa geom=check

CID_95797505_JID_9628_Energie_neutraal

0 1

--Link1--
%chk=JID_9628.chk
%mem=8GB
%nprocshared=4
# B3LYP/6-311++G(d,p) empiricaldispersion=gd3bj scf=xqc pop=npa geom=check

CID_95797505_JID_9628_Energie_kation

1 2

--Link1--
%chk=JID_9628.chk
%mem=8GB
%nprocshared=4
# B3LYP/6-311++G(d,p) empiricaldispersion=gd3bj scf=xqc pop=npa geom=check

CID_95797505_JID_9628_Energie_anion

-1 2
