%chk=JID_3639.chk
%mem=8GB
%nprocshared=4
# opt freq B3LYP/6-31G(d) empiricaldispersion=gd3bj scf=xqc

CID_105422729_JID_3639_neutraal

0 1
C          1.08632       -0.02302        0.04494
N          0.68310        1.37292        0.08050
C         -0.74403        1.56414        0.34432
C         -1.23988        1.09212        1.71753
C         -0.67444        1.87685        2.90847
C         -1.35588        3.18592        3.14555
C         -0.95545        4.50457        3.23923
C         -2.12618        5.23189        3.53507
N         -3.19710        4.44624        3.63721
N         -2.70522        3.21938        3.41682
C          0.39497        5.17646        3.10178
C          1.66032        4.45403        3.50252
C          1.37465        4.69689        2.05932
H          0.47425       -0.60030       -0.65543
H          1.03963       -0.48883        1.03357
H          2.12376       -0.08903       -0.29803
H          1.24548        1.86705        0.76918
H         -0.97130        2.62988        0.22554
H         -1.31955        1.05078       -0.43619
H         -2.33628        1.13251        1.71866
H         -0.99100        0.03233        1.84864
H         -0.81582        1.26859        3.81219
H          0.40455        1.99575        2.80093
H         -2.24139        6.29745        3.68519
H         -3.34770        2.43625        3.46653
H          0.37880        6.25025        3.27370
H          2.44455        5.04122        3.96896
H          1.59666        3.44879        3.89535
H          1.08224        3.87703        1.42200
H          1.96307        5.44809        1.54302

--Link1--
%chk=JID_3639.chk
%mem=8GB
%nprocshared=4
# B3LYP/6-311++G(d,p) empiricaldispersion=gd3bj scf=xqc pop=npa geom=check

CID_105422729_JID_3639_Energie_neutraal

0 1

--Link1--
%chk=JID_3639.chk
%mem=8GB
%nprocshared=4
# B3LYP/6-311++G(d,p) empiricaldispersion=gd3bj scf=xqc pop=npa geom=check

CID_105422729_JID_3639_Energie_kation

1 2

--Link1--
%chk=JID_3639.chk
%mem=8GB
%nprocshared=4
# B3LYP/6-311++G(d,p) empiricaldispersion=gd3bj scf=xqc pop=npa geom=check

CID_105422729_JID_3639_Energie_anion

-1 2
