%chk=JID_8055.chk
%mem=8GB
%nprocshared=4
# opt freq B3LYP/6-31G(d) empiricaldispersion=gd3bj scf=xqc

CID_149918415_JID_8055_neutraal

0 1
C          0.94358       -0.07838       -0.02594
C          1.75889        0.79715       -0.95952
O          1.86323        0.16650       -2.23967
C          3.12944       -0.23532       -2.59511
C          3.52669        0.01547       -3.92211
C          4.77024       -0.44572       -4.35737
C          5.62098       -1.11751       -3.47442
C          5.22991       -1.35189       -2.15517
C          3.97181       -0.92995       -1.72098
O          6.12777       -2.05061       -1.38062
N          5.83941       -1.90609       -0.01704
N          6.64377       -2.53485        0.69443
N          7.37728       -3.10832        1.35238
N          2.60090        0.66898       -4.76173
C          2.70545        1.13808       -6.02557
O          1.71695        1.18256       -6.75764
N          3.88065        1.63137       -6.48837
C          4.77550        2.46534       -5.71332
H         -0.04087       -0.28726       -0.45782
H          0.80558        0.41073        0.94248
H          1.42928       -1.04531        0.13558
H          1.22706        1.74252       -1.11524
H          2.73015        1.05413       -0.51971
H          5.08455       -0.33041       -5.38988
H          6.58496       -1.47559       -3.82792
H          3.63768       -1.16630       -0.71753
H          1.64246        0.62269       -4.43040
H          3.77861        1.90699       -7.45713
H          5.79182        2.08022       -5.82277
H          4.73567        3.47534       -6.13181
H          4.49021        2.51895       -4.66098

--Link1--
%chk=JID_8055.chk
%mem=8GB
%nprocshared=4
# B3LYP/6-311++G(d,p) empiricaldispersion=gd3bj scf=xqc pop=npa geom=check

CID_149918415_JID_8055_Energie_neutraal

0 1

--Link1--
%chk=JID_8055.chk
%mem=8GB
%nprocshared=4
# B3LYP/6-311++G(d,p) empiricaldispersion=gd3bj scf=xqc pop=npa geom=check

CID_149918415_JID_8055_Energie_kation

1 2

--Link1--
%chk=JID_8055.chk
%mem=8GB
%nprocshared=4
# B3LYP/6-311++G(d,p) empiricaldispersion=gd3bj scf=xqc pop=npa geom=check

CID_149918415_JID_8055_Energie_anion

-1 2
