%chk=JID_10062.chk
%mem=8GB
%nprocshared=4
# opt freq B3LYP/6-31G(d) empiricaldispersion=gd3bj scf=xqc

CID_84098347_JID_10062_neutraal

0 1
C         -0.76900        1.02600        1.21500
C          0.70531        0.64923        0.99858
C          1.14422        1.13001       -0.39685
C          0.28846        0.44932       -1.49318
C         -1.18035        0.84059       -1.24587
C         -1.63961        0.35792        0.13767
C         -1.47464       -1.16607        0.23379
C         -0.00597       -1.56588       -0.00374
C          0.84904       -0.88117        1.08940
C          0.52900       -1.09075       -1.39161
C          0.08800       -1.95649       -2.62627
C          0.79128       -1.47468       -3.88432
C          2.10163       -1.52035       -4.32642
C          2.13287       -0.86200       -5.57883
C          0.84748       -0.44431       -5.82442
O          0.02797       -0.80242       -4.80479
C          0.51960       -3.45234       -2.45439
O         -0.09010       -4.43091       -2.87042
O          1.71392       -3.63957       -1.84928
N         -1.37928       -1.95221       -2.84851
H         -0.88884        2.11559        1.17338
H         -1.09579        0.70844        2.21283
H          1.32508        1.12550        1.76635
H          2.20626        0.90441       -0.55380
H          1.04172        2.22020       -0.46610
H          0.61043        0.83109       -2.46753
H         -1.83679        0.44222       -2.02253
H         -1.28205        1.93221       -1.30438
H         -2.68959        0.62851        0.29563
H         -1.78904       -1.50537        1.22948
H         -2.14218       -1.66581       -0.47279
H          0.09720       -2.65070        0.10286
H          1.90240       -1.16600        0.97680
H          0.53451       -1.22805        2.08167
H          1.62361       -1.21126       -1.34976
H          2.93476       -1.97044       -3.80321
H          2.98768       -0.70507       -6.22160
H          0.37718        0.09543       -6.63474
H          1.81375       -4.61529       -1.84799
H         -1.58742       -1.14175       -3.43537
H         -1.59405       -2.75352       -3.44957

--Link1--
%chk=JID_10062.chk
%mem=8GB
%nprocshared=4
# B3LYP/6-311++G(d,p) empiricaldispersion=gd3bj scf=xqc pop=npa geom=check

CID_84098347_JID_10062_Energie_neutraal

0 1

--Link1--
%chk=JID_10062.chk
%mem=8GB
%nprocshared=4
# B3LYP/6-311++G(d,p) empiricaldispersion=gd3bj scf=xqc pop=npa geom=check

CID_84098347_JID_10062_Energie_kation

1 2

--Link1--
%chk=JID_10062.chk
%mem=8GB
%nprocshared=4
# B3LYP/6-311++G(d,p) empiricaldispersion=gd3bj scf=xqc pop=npa geom=check

CID_84098347_JID_10062_Energie_anion

-1 2
