%chk=JID_7271.chk
%mem=8GB
%nprocshared=4
# opt freq B3LYP/6-31G(d) empiricaldispersion=gd3bj scf=xqc

CID_82748292_JID_7271_neutraal

0 1
C          0.98084       -0.07741       -0.06033
C          0.07137        1.10704        0.26493
C         -0.84228        0.85545        1.46632
C         -0.19350        1.00980        2.86136
C          0.57877        2.37579        2.97860
C          1.54448        2.59954        1.77554
C          0.83302        2.42580        0.42513
O          2.66836        1.73941        1.77377
N          0.94071        2.86602        4.34056
C         -0.17919        2.73017        5.28267
C          2.22753        2.75993        5.05021
C          2.80888        1.37745        5.30530
C          4.03400        1.27923        4.41179
O          4.20654        2.56179        3.76884
C          3.48963        3.50215        4.57824
C          3.33120        4.86282        3.93324
C          0.57891       -0.24579        3.25440
H          1.54704        0.11715       -0.97777
H          0.38558       -0.98158       -0.22809
H          1.70079       -0.29900        0.72783
H         -0.58118        1.22180       -0.61219
H         -1.66283        1.58541        1.40953
H         -1.32524       -0.12570        1.37516
H         -1.05300        1.04383        3.54444
H         -0.21334        3.10323        2.72996
H          1.90406        3.62816        1.77914
H          1.55911        2.52619       -0.39159
H          0.11572        3.24934        0.30813
H          3.35629        2.18802        2.30707
H         -0.25231        1.71213        5.67932
H         -0.07215        3.41935        6.12853
H         -1.13437        2.99686        4.81582
H          2.03941        3.20930        6.03668
H          3.13087        1.30409        6.35314
H          2.11981        0.55000        5.17443
H          3.93528        0.50144        3.64989
H          4.93457        1.06281        4.99634
H          4.12023        3.67205        5.46519
H          2.67077        5.50710        4.52087
H          4.31032        5.35153        3.86694
H          2.96703        4.81514        2.91075
H          0.52033       -0.39836        4.33551
H          0.14105       -1.14423        2.80569
H          1.62962       -0.20858        2.96605

--Link1--
%chk=JID_7271.chk
%mem=8GB
%nprocshared=4
# B3LYP/6-311++G(d,p) empiricaldispersion=gd3bj scf=xqc pop=npa geom=check

CID_82748292_JID_7271_Energie_neutraal

0 1

--Link1--
%chk=JID_7271.chk
%mem=8GB
%nprocshared=4
# B3LYP/6-311++G(d,p) empiricaldispersion=gd3bj scf=xqc pop=npa geom=check

CID_82748292_JID_7271_Energie_kation

1 2

--Link1--
%chk=JID_7271.chk
%mem=8GB
%nprocshared=4
# B3LYP/6-311++G(d,p) empiricaldispersion=gd3bj scf=xqc pop=npa geom=check

CID_82748292_JID_7271_Energie_anion

-1 2
