%chk=JID_8940.chk
%mem=8GB
%nprocshared=4
# opt freq B3LYP/6-31G(d) empiricaldispersion=gd3bj scf=xqc

CID_113996844_JID_8940_neutraal

0 1
C          1.08984        0.03301       -0.02899
C          0.26450       -1.24963       -0.14745
C          0.06929       -1.86261        1.24291
C         -1.10820       -1.00622       -0.80289
C         -1.09331       -0.49259       -2.24616
S         -0.75213       -1.79242       -3.49373
C          1.04628       -1.80817       -3.54007
C          1.82655       -2.96495       -3.33104
C          3.22439       -2.87645       -3.44985
C          3.84197       -1.66866       -3.77555
C          3.07983       -0.52752       -4.00548
C          1.68976       -0.60534       -3.90224
O          3.80327        0.58625       -4.32923
C          3.07964        1.79281       -4.53545
C          1.27575       -4.31833       -2.97248
N          1.93844       -5.37590       -3.35852
O          1.28528       -6.55548       -2.96121
N          0.11707       -4.43185       -2.24405
H          0.54759        0.80352        0.52945
H          1.34457        0.44101       -1.01062
H          2.03266       -0.16072        0.49412
H          0.83341       -1.97185       -0.73830
H         -0.48891       -1.18809        1.90110
H         -0.48152       -2.80697        1.17747
H          1.03514       -2.07375        1.71422
H         -1.70980       -1.92333       -0.75075
H         -1.64661       -0.26507       -0.19616
H         -2.10368       -0.13626       -2.47862
H         -0.43739        0.37173       -2.37105
H          3.84653       -3.75351       -3.28105
H          4.92543       -1.62366       -3.85804
H          1.08106        0.26627       -4.11968
H          2.41029        1.70754       -5.39773
H          2.52954        2.08302       -3.63404
H          3.80363        2.58399       -4.75277
H          1.90223       -7.24186       -3.27550
H         -0.60030       -3.75586       -2.48853
H         -0.22078       -5.38968       -2.28760

--Link1--
%chk=JID_8940.chk
%mem=8GB
%nprocshared=4
# B3LYP/6-311++G(d,p) empiricaldispersion=gd3bj scf=xqc pop=npa geom=check

CID_113996844_JID_8940_Energie_neutraal

0 1

--Link1--
%chk=JID_8940.chk
%mem=8GB
%nprocshared=4
# B3LYP/6-311++G(d,p) empiricaldispersion=gd3bj scf=xqc pop=npa geom=check

CID_113996844_JID_8940_Energie_kation

1 2

--Link1--
%chk=JID_8940.chk
%mem=8GB
%nprocshared=4
# B3LYP/6-311++G(d,p) empiricaldispersion=gd3bj scf=xqc pop=npa geom=check

CID_113996844_JID_8940_Energie_anion

-1 2
