%chk=JID_10594.chk
%mem=8GB
%nprocshared=4
# opt freq B3LYP/6-31G(d) empiricaldispersion=gd3bj scf=xqc

CID_107352425_JID_10594_neutraal

0 1
C          1.07126        0.06406       -0.02861
C          0.11841        0.29530       -1.18858
N          0.86166        0.89242       -2.30692
C          0.17982        0.75626       -3.54507
C          0.40806       -0.40667       -4.31884
C         -0.31447       -0.60584       -5.51320
C         -1.27461        0.30875       -5.94042
C         -1.52219        1.45001       -5.18633
C         -0.80185        1.66909       -4.00011
N         -1.09927        2.89061       -3.25155
O         -2.25991        3.32419       -3.30046
O         -0.17664        3.42079       -2.61290
C          1.48309       -1.41193       -3.95387
O          1.03679       -2.76712       -4.08375
C          0.19265       -3.17400       -3.00837
C         -0.02110       -4.68778       -3.06694
C          1.14491       -5.57087       -2.53767
C          1.36104       -5.34988       -1.02960
C          0.76076       -7.04780       -2.75863
C          2.46223       -5.29490       -3.27870
H          1.87967       -0.61699       -0.31509
H          0.53883       -0.37437        0.82096
H          1.52611        1.00456        0.29984
H         -0.33165       -0.66287       -1.47031
H         -0.69073        0.96501       -0.87503
H          1.00979        1.89128       -2.10737
H         -0.11964       -1.49303       -6.11608
H         -1.82242        0.13064       -6.86293
H         -2.27140        2.16080       -5.52970
H          2.31280       -1.27937       -4.65823
H          1.90257       -1.26608       -2.95389
H          0.61488       -2.87289       -2.04541
H         -0.77796       -2.67910       -3.12578
H         -0.92189       -4.92324       -2.48486
H         -0.23330       -4.96842       -4.10722
H          0.43077       -5.50011       -0.47048
H          2.10347       -6.05132       -0.63158
H          1.72464       -4.34054       -0.81245
H          0.61530       -7.26341       -3.82314
H          1.54075       -7.72212       -2.38708
H         -0.16969       -7.29722       -2.23611
H          2.33157       -5.37911       -4.36307
H          2.85010       -4.29521       -3.05756
H          3.23796       -6.01030       -2.98170

--Link1--
%chk=JID_10594.chk
%mem=8GB
%nprocshared=4
# B3LYP/6-311++G(d,p) empiricaldispersion=gd3bj scf=xqc pop=npa geom=check

CID_107352425_JID_10594_Energie_neutraal

0 1

--Link1--
%chk=JID_10594.chk
%mem=8GB
%nprocshared=4
# B3LYP/6-311++G(d,p) empiricaldispersion=gd3bj scf=xqc pop=npa geom=check

CID_107352425_JID_10594_Energie_kation

1 2

--Link1--
%chk=JID_10594.chk
%mem=8GB
%nprocshared=4
# B3LYP/6-311++G(d,p) empiricaldispersion=gd3bj scf=xqc pop=npa geom=check

CID_107352425_JID_10594_Energie_anion

-1 2
