%chk=JID_10528.chk
%mem=8GB
%nprocshared=4
# opt freq B3LYP/6-31G(d) empiricaldispersion=gd3bj scf=xqc

CID_106337746_JID_10528_neutraal

0 1
C          0.97997        0.07237        0.06604
C          0.31829        0.01946        1.44468
C          0.73617        1.23185        2.28288
C         -1.17696       -0.11047        1.31648
N         -1.93159        0.97205        1.09268
N         -3.18605        0.49275        1.01535
C         -3.28658       -0.87973        1.17013
C         -1.97546       -1.28249        1.38733
N         -1.49073       -2.59792        1.63622
O         -0.57157       -3.00212        0.91355
O         -2.00530       -3.22302        2.57298
N         -4.50328       -1.48476        1.05438
C         -4.75084       -2.92135        1.10937
C         -5.18678       -3.37086        2.49078
S         -6.89428       -2.97374        2.81942
O         -7.70360       -3.36560        1.68701
O         -7.22058       -3.39130        4.16385
N         -6.85766       -1.27273        2.87868
C         -8.14920       -0.62984        2.56636
C         -4.26203        1.41756        0.73625
H          0.65695        0.95345       -0.50011
H          0.72699       -0.81269       -0.52791
H          2.07047        0.11228        0.15957
H          0.70160       -0.86630        1.96655
H          0.45222        2.17535        1.80311
H          0.26605        1.20472        3.27219
H          1.82194        1.24572        2.42710
H         -5.36781       -0.93980        1.12896
H         -5.51705       -3.15875        0.36300
H         -3.86551       -3.47921        0.79088
H         -5.12177       -4.46195        2.56284
H         -4.58617       -2.93634        3.29517
H         -6.54704       -1.01383        3.82139
H         -8.38356       -0.74112        1.50471
H         -8.95236       -1.04282        3.18238
H         -8.06882        0.43830        2.78962
H         -4.96508        1.39008        1.57240
H         -3.85842        2.42770        0.62633
H         -4.74911        1.11227       -0.19316

--Link1--
%chk=JID_10528.chk
%mem=8GB
%nprocshared=4
# B3LYP/6-311++G(d,p) empiricaldispersion=gd3bj scf=xqc pop=npa geom=check

CID_106337746_JID_10528_Energie_neutraal

0 1

--Link1--
%chk=JID_10528.chk
%mem=8GB
%nprocshared=4
# B3LYP/6-311++G(d,p) empiricaldispersion=gd3bj scf=xqc pop=npa geom=check

CID_106337746_JID_10528_Energie_kation

1 2

--Link1--
%chk=JID_10528.chk
%mem=8GB
%nprocshared=4
# B3LYP/6-311++G(d,p) empiricaldispersion=gd3bj scf=xqc pop=npa geom=check

CID_106337746_JID_10528_Energie_anion

-1 2
