%chk=JID_4995.chk
%mem=8GB
%nprocshared=4
# opt freq B3LYP/6-31G(d) empiricaldispersion=gd3bj scf=xqc

CID_65703182_JID_4995_neutraal

0 1
C          0.96063        0.06305        0.06689
C          0.22689        0.19589        1.39163
C          0.74315        1.31651        2.21654
N          0.34126        2.58086        2.05875
N          1.04102        3.22360        3.01719
C          1.83443        2.33979        3.71193
N          1.66362        1.13379        3.21014
C          2.72675        2.67917        4.85601
C          4.06286        3.23435        4.39127
C          0.90690        4.66244        3.19511
C          1.56126        5.48932        2.07124
C          0.90151        5.39865        0.69978
C         -0.48739        5.06267        3.45200
N         -1.56120        5.43253        3.69646
H          0.85216        0.96964       -0.53824
H          0.56063       -0.77892       -0.50674
H          2.03098       -0.10864        0.22412
H         -0.84346        0.33961        1.20256
H          0.32424       -0.74101        1.95258
H          2.23738        3.38656        5.53383
H          2.90753        1.76993        5.44218
H          3.93835        4.17309        3.84258
H          4.71036        3.43129        5.25167
H          4.57830        2.52701        3.73266
H          1.46386        4.90556        4.10754
H          1.56424        6.54566        2.37121
H          2.61251        5.19329        1.96647
H         -0.16046        5.65727        0.74144
H          1.38634        6.09861        0.01081
H          1.00284        4.39950        0.26804

--Link1--
%chk=JID_4995.chk
%mem=8GB
%nprocshared=4
# B3LYP/6-311++G(d,p) empiricaldispersion=gd3bj scf=xqc pop=npa geom=check

CID_65703182_JID_4995_Energie_neutraal

0 1

--Link1--
%chk=JID_4995.chk
%mem=8GB
%nprocshared=4
# B3LYP/6-311++G(d,p) empiricaldispersion=gd3bj scf=xqc pop=npa geom=check

CID_65703182_JID_4995_Energie_kation

1 2

--Link1--
%chk=JID_4995.chk
%mem=8GB
%nprocshared=4
# B3LYP/6-311++G(d,p) empiricaldispersion=gd3bj scf=xqc pop=npa geom=check

CID_65703182_JID_4995_Energie_anion

-1 2
