%chk=JID_4998.chk
%mem=8GB
%nprocshared=4
# opt freq B3LYP/6-31G(d) empiricaldispersion=gd3bj scf=xqc

CID_64661413_JID_4998_neutraal

0 1
C          1.03326       -0.06610       -0.06726
C          0.16656       -0.16914        1.18140
C          0.86738        0.40617        2.42411
C          0.00060        0.25044        3.70966
C         -0.47333        1.65044        3.84840
C          0.22355        2.47202        2.98084
O          1.14070        1.81759        2.20357
C          0.00931        3.83390        2.93944
C         -0.94770        4.38047        3.80306
C         -1.66042        3.55894        4.69346
C         -1.41822        2.18013        4.71414
O         -2.60793        3.98151        5.58663
C         -2.83414        5.38254        5.67029
N          0.76322       -0.15846        4.89224
H          1.24358        0.97756       -0.32079
H          0.52060       -0.52218       -0.92012
H          1.98628       -0.58588        0.07317
H         -0.77133        0.36686        0.99282
H         -0.08264       -1.22240        1.35486
H          1.83274       -0.10210        2.54545
H         -0.82956       -0.44655        3.55537
H          0.56835        4.46209        2.25479
H         -1.11357        5.45180        3.76169
H         -1.94860        1.53813        5.41115
H         -1.92245        5.91473        5.96172
H         -3.23758        5.77291        4.73029
H         -3.58237        5.55434        6.45015
H          1.23797       -1.03864        4.70338
H          1.49966        0.52876        5.05909

--Link1--
%chk=JID_4998.chk
%mem=8GB
%nprocshared=4
# B3LYP/6-311++G(d,p) empiricaldispersion=gd3bj scf=xqc pop=npa geom=check

CID_64661413_JID_4998_Energie_neutraal

0 1

--Link1--
%chk=JID_4998.chk
%mem=8GB
%nprocshared=4
# B3LYP/6-311++G(d,p) empiricaldispersion=gd3bj scf=xqc pop=npa geom=check

CID_64661413_JID_4998_Energie_kation

1 2

--Link1--
%chk=JID_4998.chk
%mem=8GB
%nprocshared=4
# B3LYP/6-311++G(d,p) empiricaldispersion=gd3bj scf=xqc pop=npa geom=check

CID_64661413_JID_4998_Energie_anion

-1 2
