%chk=JID_9795.chk
%mem=8GB
%nprocshared=4
# opt freq B3LYP/6-31G(d) empiricaldispersion=gd3bj scf=xqc

CID_12446959_JID_9795_neutraal

0 1
C          1.04618        0.04097        0.07867
C          0.53047       -1.06500        0.97748
C          0.92253       -2.34368        0.77873
C          0.58315       -3.39262        1.74572
C          0.98287       -4.72825        1.56969
C          0.66322       -5.70573        2.51602
C         -0.05998       -5.36198        3.65360
C         -0.46250       -4.04093        3.84153
C         -0.13977       -3.05913        2.88959
C         -0.59365       -1.66245        3.09297
O         -1.26720       -1.43253        4.09851
N         -0.25788       -0.70963        2.09647
C         -0.80745        0.61272        2.27064
C         -1.50024        1.24604        1.22771
C         -2.02656        2.53013        1.39429
C         -1.87299        3.19452        2.60860
C         -1.20365        2.57204        3.65935
C         -0.67936        1.28734        3.49303
O          1.66753       -2.77744       -0.29892
H          1.25537        0.95833        0.63882
H          0.33464        0.25721       -0.72336
H          2.00272       -0.21819       -0.38760
H          1.55396       -5.01974        0.69038
H          0.98207       -6.73372        2.36224
H         -0.31200       -6.11854        4.39229
H         -1.03241       -3.77632        4.73018
H         -1.67706        0.72974        0.28872
H         -2.56939        3.00429        0.58084
H         -2.28685        4.19063        2.74189
H         -1.09266        3.08052        4.61353
H         -0.15779        0.82326        4.32691
H          1.67194       -2.09803       -0.99081

--Link1--
%chk=JID_9795.chk
%mem=8GB
%nprocshared=4
# B3LYP/6-311++G(d,p) empiricaldispersion=gd3bj scf=xqc pop=npa geom=check

CID_12446959_JID_9795_Energie_neutraal

0 1

--Link1--
%chk=JID_9795.chk
%mem=8GB
%nprocshared=4
# B3LYP/6-311++G(d,p) empiricaldispersion=gd3bj scf=xqc pop=npa geom=check

CID_12446959_JID_9795_Energie_kation

1 2

--Link1--
%chk=JID_9795.chk
%mem=8GB
%nprocshared=4
# B3LYP/6-311++G(d,p) empiricaldispersion=gd3bj scf=xqc pop=npa geom=check

CID_12446959_JID_9795_Energie_anion

-1 2
