%chk=JID_5594.chk
%mem=8GB
%nprocshared=4
# opt freq B3LYP/6-31G(d) empiricaldispersion=gd3bj scf=xqc

CID_137821336_JID_5594_neutraal

0 1
C          1.02618        0.09598       -0.01011
C          0.89778        0.47344        1.45769
C          1.55055        1.81726        1.77855
N          0.85770        2.93495        1.16798
C         -0.26478        3.61358        1.46609
O         -0.65499        4.47239        0.67088
N         -1.00077        3.39014        2.58909
N         -0.61807        2.65730        3.72838
C         -1.71768        2.56557        4.70708
C         -1.16611        2.20481        6.09564
C         -0.79347        0.72992        6.07040
S         -2.02083       -0.03890        5.02768
O         -3.01027       -0.68626        5.86272
O         -1.33084       -0.73257        3.95950
C         -2.72286        1.46190        4.36586
H          0.51165        0.81673       -0.65325
H          0.58162       -0.88872       -0.18630
H          2.07691        0.05185       -0.31391
H         -0.16527        0.48269        1.71737
H          1.37603       -0.30503        2.06305
H          1.62420        1.97485        2.85662
H          2.57636        1.83473        1.39252
H          1.22480        3.24190        0.27596
H         -1.74457        4.08096        2.66896
H         -0.36597        1.71851        3.40951
H         -2.22605        3.53537        4.77402
H         -1.95283        2.36682        6.84384
H         -0.31329        2.82805        6.38518
H         -0.81607        0.27668        7.06355
H          0.18745        0.57314        5.61250
H         -2.90817        1.34349        3.29543
H         -3.67265        1.63526        4.88145

--Link1--
%chk=JID_5594.chk
%mem=8GB
%nprocshared=4
# B3LYP/6-311++G(d,p) empiricaldispersion=gd3bj scf=xqc pop=npa geom=check

CID_137821336_JID_5594_Energie_neutraal

0 1

--Link1--
%chk=JID_5594.chk
%mem=8GB
%nprocshared=4
# B3LYP/6-311++G(d,p) empiricaldispersion=gd3bj scf=xqc pop=npa geom=check

CID_137821336_JID_5594_Energie_kation

1 2

--Link1--
%chk=JID_5594.chk
%mem=8GB
%nprocshared=4
# B3LYP/6-311++G(d,p) empiricaldispersion=gd3bj scf=xqc pop=npa geom=check

CID_137821336_JID_5594_Energie_anion

-1 2
