%chk=JID_728.chk
%mem=8GB
%nprocshared=4
# opt freq B3LYP/6-31G(d) empiricaldispersion=gd3bj scf=xqc

CID_151978554_JID_728_neutraal

0 1
C          1.05576        0.06795       -0.04768
C          0.81815       -0.30229        1.40789
C          1.00535        0.86824        2.38040
C          0.11965        2.10751        2.12377
C         -1.36962        1.76187        2.20558
N          0.51632        3.11644        3.11819
C          0.09321        4.46908        2.80386
N         -1.25732        4.72323        3.28156
N         -1.73718        5.81352        2.92889
N         -2.17483        6.81338        2.60132
H          0.28807        0.75343       -0.41823
H          1.02479       -0.83023       -0.67290
H          2.03527        0.53828       -0.17926
H         -0.18112       -0.73685        1.51806
H          1.52639       -1.09279        1.68530
H          0.82845        0.49344        3.39784
H          2.06118        1.17090        2.34514
H          0.34662        2.48735        1.12094
H         -1.64003        1.38914        3.19962
H         -1.99753        2.62936        1.98308
H         -1.64007        0.99437        1.47404
H          0.13012        2.87529        4.02995
H          0.77910        5.15461        3.31622
H          0.19018        4.67760        1.73065

--Link1--
%chk=JID_728.chk
%mem=8GB
%nprocshared=4
# B3LYP/6-311++G(d,p) empiricaldispersion=gd3bj scf=xqc pop=npa geom=check

CID_151978554_JID_728_Energie_neutraal

0 1

--Link1--
%chk=JID_728.chk
%mem=8GB
%nprocshared=4
# B3LYP/6-311++G(d,p) empiricaldispersion=gd3bj scf=xqc pop=npa geom=check

CID_151978554_JID_728_Energie_kation

1 2

--Link1--
%chk=JID_728.chk
%mem=8GB
%nprocshared=4
# B3LYP/6-311++G(d,p) empiricaldispersion=gd3bj scf=xqc pop=npa geom=check

CID_151978554_JID_728_Energie_anion

-1 2
