%chk=JID_5927.chk
%mem=8GB
%nprocshared=4
# opt freq B3LYP/6-31G(d) empiricaldispersion=gd3bj scf=xqc

CID_5075080_JID_5927_neutraal

0 1
C          1.05527        0.04100        0.07255
C          0.47409        1.39464       -0.20816
N          1.25671        2.44733        0.12906
C          0.76779        3.68465       -0.10380
C         -0.48157        3.94310       -0.65546
C         -0.95558        5.35352       -0.84245
O         -1.15853        5.65181       -2.21227
C         -2.37994        5.20277       -2.79863
O         -2.52862        3.78625       -2.85425
C         -2.63958        3.08920       -1.62089
C         -1.28445        2.84778       -1.01033
C         -0.79547        1.55648       -0.77448
O         -1.59566        0.49530       -1.09836
C         -3.61276        5.91050       -2.21967
C         -2.26371        5.62500       -4.27225
H          1.17319       -0.52264       -0.85806
H          0.40884       -0.51628        0.75761
H          2.04219        0.12829        0.53911
H          1.43865        4.49153        0.18084
H         -0.18626        6.04911       -0.48767
H         -1.84073        5.55439       -0.23107
H         -3.13493        2.14240       -1.85666
H         -3.29934        3.59605       -0.90990
H         -1.08755       -0.32973       -1.04728
H         -3.50413        6.99899       -2.28051
H         -4.52258        5.60966       -2.75068
H         -3.77830        5.67587       -1.16507
H         -1.39379        5.14685       -4.73918
H         -3.14460        5.32099       -4.84852
H         -2.12610        6.70749       -4.37105

--Link1--
%chk=JID_5927.chk
%mem=8GB
%nprocshared=4
# B3LYP/6-311++G(d,p) empiricaldispersion=gd3bj scf=xqc pop=npa geom=check

CID_5075080_JID_5927_Energie_neutraal

0 1

--Link1--
%chk=JID_5927.chk
%mem=8GB
%nprocshared=4
# B3LYP/6-311++G(d,p) empiricaldispersion=gd3bj scf=xqc pop=npa geom=check

CID_5075080_JID_5927_Energie_kation

1 2

--Link1--
%chk=JID_5927.chk
%mem=8GB
%nprocshared=4
# B3LYP/6-311++G(d,p) empiricaldispersion=gd3bj scf=xqc pop=npa geom=check

CID_5075080_JID_5927_Energie_anion

-1 2
