%chk=JID_6660.chk
%mem=8GB
%nprocshared=4
# opt freq B3LYP/6-31G(d) empiricaldispersion=gd3bj scf=xqc

CID_147996880_JID_6660_neutraal

0 1
C          1.07369        0.04936        0.04619
C         -0.02569        0.34394       -0.65882
C         -1.00014        1.47334       -0.44916
C         -0.95037        2.25540        0.86963
C         -0.65654        3.72566        0.61670
N         -1.62183        4.53416        0.30084
C          0.70499        4.19451        0.71136
N          1.71596        3.38267        0.97273
N          2.87687        4.11350        0.99222
C          2.56196        5.36460        0.74804
N          1.19036        5.48101        0.56586
C          0.56540        6.70085        0.30121
C          1.29412        7.82962        0.20728
C          2.73981        7.72187        0.39745
C          3.34334        6.54540        0.65432
N          0.76537        9.06895       -0.05068
H          1.41772        0.64163        0.88751
H          1.69265       -0.79997       -0.22916
H         -0.25804       -0.30099       -1.50676
H         -0.91083        2.14917       -1.30914
H         -2.00192        1.02874       -0.52349
H         -1.93757        2.20012        1.34769
H         -0.24810        1.84824        1.60095
H         -2.51655        4.03139        0.27433
H         -0.50968        6.69351        0.18265
H          3.33208        8.63022        0.34347
H          4.41486        6.47519        0.80128
H         -0.17448        9.04295       -0.43909
H          1.38133        9.67943       -0.58099

--Link1--
%chk=JID_6660.chk
%mem=8GB
%nprocshared=4
# B3LYP/6-311++G(d,p) empiricaldispersion=gd3bj scf=xqc pop=npa geom=check

CID_147996880_JID_6660_Energie_neutraal

0 1

--Link1--
%chk=JID_6660.chk
%mem=8GB
%nprocshared=4
# B3LYP/6-311++G(d,p) empiricaldispersion=gd3bj scf=xqc pop=npa geom=check

CID_147996880_JID_6660_Energie_kation

1 2

--Link1--
%chk=JID_6660.chk
%mem=8GB
%nprocshared=4
# B3LYP/6-311++G(d,p) empiricaldispersion=gd3bj scf=xqc pop=npa geom=check

CID_147996880_JID_6660_Energie_anion

-1 2
