%chk=JID_77.chk
%mem=8GB
%nprocshared=4
# opt freq B3LYP/6-31G(d) empiricaldispersion=gd3bj scf=xqc

CID_64490320_JID_77_neutraal

0 1
C          1.06639        0.03851       -0.06410
C          0.63246       -0.82148        1.12887
C          1.39898       -0.32872        2.37602
C         -0.87186       -0.61701        1.37799
C          0.96411       -2.32987        0.93818
C          0.32783       -3.07481       -0.25490
C          1.08624       -2.89377       -1.54881
C          0.59406       -3.54068       -2.82863
C          0.53436       -2.05321       -2.67654
N          0.38257       -4.51141        0.04412
H          1.02713        1.10575        0.18445
H          0.40756       -0.10172       -0.92310
H          2.09300       -0.19096       -0.36896
H          1.18942        0.72715        2.58212
H          1.11742       -0.90104        3.26719
H          2.48162       -0.43165        2.24002
H         -1.46877       -0.87492        0.49752
H         -1.22179       -1.23249        2.21422
H         -1.09152        0.42887        1.62204
H          2.05644       -2.44908        0.89618
H          0.65014       -2.83728        1.86322
H         -0.72419       -2.79913       -0.37226
H          2.16215       -2.88372       -1.39958
H          1.33491       -3.95446       -3.50357
H         -0.34959       -4.07473       -2.82717
H         -0.44523       -1.60149       -2.56633
H          1.23488       -1.45378       -3.24769
H         -0.02860       -5.03264       -0.72722
H          1.35464       -4.80933        0.10518

--Link1--
%chk=JID_77.chk
%mem=8GB
%nprocshared=4
# B3LYP/6-311++G(d,p) empiricaldispersion=gd3bj scf=xqc pop=npa geom=check

CID_64490320_JID_77_Energie_neutraal

0 1

--Link1--
%chk=JID_77.chk
%mem=8GB
%nprocshared=4
# B3LYP/6-311++G(d,p) empiricaldispersion=gd3bj scf=xqc pop=npa geom=check

CID_64490320_JID_77_Energie_kation

1 2

--Link1--
%chk=JID_77.chk
%mem=8GB
%nprocshared=4
# B3LYP/6-311++G(d,p) empiricaldispersion=gd3bj scf=xqc pop=npa geom=check

CID_64490320_JID_77_Energie_anion

-1 2
