%chk=JID_8929.chk
%mem=8GB
%nprocshared=4
# opt freq B3LYP/6-31G(d) empiricaldispersion=gd3bj scf=xqc

CID_113580081_JID_8929_neutraal

0 1
C          0.93095        0.06433        0.03307
C          0.96194        1.44261        0.68726
N          1.33851        2.48267       -0.27843
C          1.87071        3.68846        0.39176
C          0.79431        4.56024        1.05185
O         -0.18213        4.97229        0.08994
C         -0.83357        3.82540       -0.49691
C          0.21519        2.89229       -1.15837
C         -1.84557        4.34202       -1.53654
N         -2.77061        3.29925       -1.96154
C         -4.06222        3.35198       -1.56813
N         -4.52484        4.07916       -0.57848
C         -5.89404        3.92854       -0.47580
C         -6.47066        3.06468       -1.38182
S         -5.25114        2.41857       -2.39515
C         -7.84325        2.68774       -1.55343
O         -8.32898        1.90420       -2.35616
O         -8.64773        3.33083       -0.67623
H          0.14061       -0.01420       -0.71920
H          0.74301       -0.70349        0.79090
H          1.88838       -0.16647       -0.44616
H          0.00320        1.65128        1.17463
H          1.71415        1.38954        1.48455
H          2.37856        4.28797       -0.37501
H          2.64149        3.41817        1.12295
H          0.29783        4.04046        1.87934
H          1.25422        5.46589        1.46004
H         -1.37352        3.29638        0.29854
H          0.66896        3.42690       -2.00396
H         -0.27543        2.01535       -1.59412
H         -2.37164        5.21718       -1.13251
H         -1.31150        4.72269       -2.41642
H         -2.57511        2.87216       -2.86007
H         -6.42864        4.48199        0.28758
H         -9.53931        2.99252       -0.90223

--Link1--
%chk=JID_8929.chk
%mem=8GB
%nprocshared=4
# B3LYP/6-311++G(d,p) empiricaldispersion=gd3bj scf=xqc pop=npa geom=check

CID_113580081_JID_8929_Energie_neutraal

0 1

--Link1--
%chk=JID_8929.chk
%mem=8GB
%nprocshared=4
# B3LYP/6-311++G(d,p) empiricaldispersion=gd3bj scf=xqc pop=npa geom=check

CID_113580081_JID_8929_Energie_kation

1 2

--Link1--
%chk=JID_8929.chk
%mem=8GB
%nprocshared=4
# B3LYP/6-311++G(d,p) empiricaldispersion=gd3bj scf=xqc pop=npa geom=check

CID_113580081_JID_8929_Energie_anion

-1 2
