%chk=JID_1278.chk
%mem=8GB
%nprocshared=4
# opt freq B3LYP/6-31G(d) empiricaldispersion=gd3bj scf=xqc

CID_131216287_JID_1278_neutraal

0 1
C          1.00681        0.09939       -0.00873
C          0.33102        0.49773        1.29828
C          1.00478        1.70110        1.97361
C          0.86466        2.99608        1.17695
S          0.47548        1.92552        3.72814
C         -1.34354        1.89905        3.61995
C         -1.91241        3.14231        3.06144
C         -1.85627        4.47207        3.40852
C         -2.65009        5.11092        2.44127
N         -3.16878        4.24608        1.56685
O         -2.70614        3.00194        1.96300
H          0.91220        0.88444       -0.76462
H          0.54033       -0.80574       -0.41100
H          2.07033       -0.10845        0.14539
H         -0.72195        0.71130        1.08326
H          0.35957       -0.37060        1.96813
H          2.07790        1.48717        2.05108
H         -0.17191        3.19880        0.89668
H          1.25333        3.85726        1.73134
H          1.43902        2.93575        0.24609
H         -1.68251        1.01122        3.07984
H         -1.71475        1.78513        4.64492
H         -1.31467        4.90995        4.23335
H         -2.87592        6.16236        2.33280

--Link1--
%chk=JID_1278.chk
%mem=8GB
%nprocshared=4
# B3LYP/6-311++G(d,p) empiricaldispersion=gd3bj scf=xqc pop=npa geom=check

CID_131216287_JID_1278_Energie_neutraal

0 1

--Link1--
%chk=JID_1278.chk
%mem=8GB
%nprocshared=4
# B3LYP/6-311++G(d,p) empiricaldispersion=gd3bj scf=xqc pop=npa geom=check

CID_131216287_JID_1278_Energie_kation

1 2

--Link1--
%chk=JID_1278.chk
%mem=8GB
%nprocshared=4
# B3LYP/6-311++G(d,p) empiricaldispersion=gd3bj scf=xqc pop=npa geom=check

CID_131216287_JID_1278_Energie_anion

-1 2
