%chk=JID_9552.chk
%mem=8GB
%nprocshared=4
# opt freq B3LYP/6-31G(d) empiricaldispersion=gd3bj scf=xqc

CID_14912382_JID_9552_neutraal

0 1
C          1.08797        0.03654       -0.03043
C          1.09410       -1.47858       -0.07173
S          2.36684       -2.31019        0.93899
C          3.97812       -1.59063        0.37824
C          4.13343       -1.70450       -1.12213
C          5.21737       -2.07580       -1.84325
C          5.14203       -2.23358       -3.38871
C          4.99810       -0.84129       -4.03731
C          6.37535       -2.92024       -4.02630
C          3.91940       -3.09832       -3.78490
S          6.74212       -2.37925       -1.02976
C          7.40076       -0.68321       -0.92663
C          8.81915       -0.63311       -1.46438
C          4.26066       -0.22836        1.00212
C          4.42273       -0.14035        2.39910
C          4.71031        1.07601        3.02054
C          4.84698        2.23044        2.25681
C          4.69889        2.16704        0.87378
C          4.41229        0.94856        0.25135
H          1.16478        0.41976        0.99171
H          0.14885        0.41087       -0.45287
H          1.88866        0.45724       -0.64048
H          0.13330       -1.83262        0.31898
H          1.14588       -1.83845       -1.10378
H          4.70361       -2.27289        0.83763
H          3.23755       -1.46420       -1.68354
H          5.86060       -0.20516       -3.80869
H          4.92642       -0.92031       -5.12840
H          4.09865       -0.32002       -3.69076
H          6.54080       -3.91988       -3.60792
H          6.24211       -3.04246       -5.10818
H          7.28842       -2.33073       -3.89046
H          3.94742       -4.07263       -3.28278
H          2.96742       -2.61814       -3.53526
H          3.89984       -3.28404       -4.86547
H          6.77752        0.01811       -1.48937
H          7.39033       -0.37300        0.12278
H          8.85695       -0.91205       -2.52262
H          9.21198        0.38574       -1.37923
H          9.48819       -1.29397       -0.90366
H          4.32596       -1.03277        3.01642
H          4.82814        1.11792        4.10024
H          5.07032        3.17808        2.73933
H          4.80762        3.06846        0.27629
H          4.30958        0.93669       -0.83081

--Link1--
%chk=JID_9552.chk
%mem=8GB
%nprocshared=4
# B3LYP/6-311++G(d,p) empiricaldispersion=gd3bj scf=xqc pop=npa geom=check

CID_14912382_JID_9552_Energie_neutraal

0 1

--Link1--
%chk=JID_9552.chk
%mem=8GB
%nprocshared=4
# B3LYP/6-311++G(d,p) empiricaldispersion=gd3bj scf=xqc pop=npa geom=check

CID_14912382_JID_9552_Energie_kation

1 2

--Link1--
%chk=JID_9552.chk
%mem=8GB
%nprocshared=4
# B3LYP/6-311++G(d,p) empiricaldispersion=gd3bj scf=xqc pop=npa geom=check

CID_14912382_JID_9552_Energie_anion

-1 2
