%chk=JID_6244.chk
%mem=8GB
%nprocshared=4
# opt freq B3LYP/6-31G(d) empiricaldispersion=gd3bj scf=xqc

CID_126827296_JID_6244_neutraal

0 1
C          0.96878       -0.07324        0.06050
C         -0.02939        0.95941        0.58594
C         -0.37161        1.95246       -0.53555
C         -1.32004        0.31486        1.13958
C         -1.16440       -0.84650        2.15990
N         -1.07534       -0.44602        3.59106
C         -1.26147       -1.65342        4.42390
C         -1.18670       -1.34265        5.91780
C          0.13193       -0.66918        6.27780
C          0.38670        0.58189        5.41610
C          0.22187        0.18401        3.91629
C         -0.59047        1.75139        5.72929
O         -0.71904        2.01215        7.13001
O          1.77302        0.97464        5.54243
C          2.15496        1.57760        6.77049
O         -2.14181        1.33321        1.72963
H          0.49858       -0.74793       -0.66267
H          1.38637       -0.67363        0.87397
H          1.81267        0.41774       -0.43655
H          0.46062        1.55262        1.36272
H         -0.86581        1.44974       -1.37384
H         -1.03447        2.74546       -0.17445
H          0.53565        2.43276       -0.91819
H         -1.88906       -0.08037        0.28810
H         -2.09557       -1.42324        2.06214
H         -0.36177       -1.53630        1.87910
H         -0.50966       -2.41419        4.17375
H         -2.24657       -2.09189        4.22243
H         -1.28649       -2.27371        6.48778
H         -2.02935       -0.70426        6.20857
H          0.14173       -0.43238        7.34710
H          0.95537       -1.38177        6.13227
H          0.34584        1.10340        3.33958
H          1.05141       -0.47390        3.62044
H         -0.22509        2.67518        5.26758
H         -1.59778        1.56433        5.34335
H         -1.33134        1.34845        7.49245
H          1.75048        2.59002        6.84755
H          1.85994        0.97391        7.63168
H          3.24576        1.66061        6.77537
H         -2.10853        1.16399        2.69304

--Link1--
%chk=JID_6244.chk
%mem=8GB
%nprocshared=4
# B3LYP/6-311++G(d,p) empiricaldispersion=gd3bj scf=xqc pop=npa geom=check

CID_126827296_JID_6244_Energie_neutraal

0 1

--Link1--
%chk=JID_6244.chk
%mem=8GB
%nprocshared=4
# B3LYP/6-311++G(d,p) empiricaldispersion=gd3bj scf=xqc pop=npa geom=check

CID_126827296_JID_6244_Energie_kation

1 2

--Link1--
%chk=JID_6244.chk
%mem=8GB
%nprocshared=4
# B3LYP/6-311++G(d,p) empiricaldispersion=gd3bj scf=xqc pop=npa geom=check

CID_126827296_JID_6244_Energie_anion

-1 2
