%chk=JID_9043.chk
%mem=8GB
%nprocshared=4
# opt freq B3LYP/6-31G(d) empiricaldispersion=gd3bj scf=xqc

CID_54989549_JID_9043_neutraal

0 1
C          0.93130       -0.06919        0.02222
O          2.02992       -0.20671       -0.86905
C          2.08106        0.84279       -1.77551
C          3.35629        1.28695       -2.12223
C          3.39680        2.36028       -2.99129
C          2.21233        2.83527       -3.56662
C          0.97571        2.26112       -3.26877
N          0.92472        1.28423       -2.33404
N         -0.21044        2.66890       -3.86461
C         -1.39632        1.79256       -3.64209
C         -2.57085        2.59672       -3.07026
O         -3.74530        2.39096       -3.36225
N         -2.22669        3.56167       -2.16517
C         -0.35039        3.58706       -5.01055
C         -0.04609        5.05117       -4.68774
C          0.33459        5.63500       -6.04141
C          1.13473        4.52431       -6.70683
C          0.46427        3.22430       -6.26004
N          4.51658        0.86012       -1.45534
H          1.02515       -0.84157        0.79162
H         -0.02270       -0.22630       -0.49239
H          0.94552        0.90631        0.52136
H          4.33970        2.83822       -3.23805
H          2.30457        3.66000       -4.25751
H         -1.70878        1.36406       -4.60254
H         -1.23289        0.95337       -2.95866
H         -1.24510        3.78556       -2.04433
H         -2.94283        4.16620       -1.79143
H         -1.40245        3.57475       -5.33258
H         -0.91699        5.56122       -4.26220
H          0.77228        5.17451       -3.97343
H          0.90819        6.56162       -5.94776
H         -0.56730        5.84999       -6.62691
H          2.17323        4.55207       -6.35845
H          1.15199        4.62481       -7.79630
H          1.19743        2.42627       -6.11309
H         -0.21607        2.87394       -7.04640
H          4.38005       -0.06645       -1.05093
H          5.35660        0.91814       -2.02061

--Link1--
%chk=JID_9043.chk
%mem=8GB
%nprocshared=4
# B3LYP/6-311++G(d,p) empiricaldispersion=gd3bj scf=xqc pop=npa geom=check

CID_54989549_JID_9043_Energie_neutraal

0 1

--Link1--
%chk=JID_9043.chk
%mem=8GB
%nprocshared=4
# B3LYP/6-311++G(d,p) empiricaldispersion=gd3bj scf=xqc pop=npa geom=check

CID_54989549_JID_9043_Energie_kation

1 2

--Link1--
%chk=JID_9043.chk
%mem=8GB
%nprocshared=4
# B3LYP/6-311++G(d,p) empiricaldispersion=gd3bj scf=xqc pop=npa geom=check

CID_54989549_JID_9043_Energie_anion

-1 2
