%chk=JID_8618.chk
%mem=8GB
%nprocshared=4
# opt freq B3LYP/6-31G(d) empiricaldispersion=gd3bj scf=xqc

CID_148632736_JID_8618_neutraal

0 1
C         -1.43100        0.32400       -0.23100
C         -1.14979       -1.15202        0.03441
C          0.24940       -1.55092       -0.42889
C          1.31846       -0.65092        0.20891
C          1.04197        0.82897       -0.09879
C         -0.35696        1.23067        0.36445
N          2.67390       -1.06657       -0.17059
C          3.84942       -0.76013        0.50326
O          4.85862       -0.45959       -0.15282
C          3.91271       -0.79651        2.03595
C          3.40871        0.50176        2.62234
C          2.40264        0.54704        3.50628
C          1.70361       -0.64644        3.91781
C          2.11078       -1.88162        3.57545
C          3.36772       -2.07776        2.72001
O          3.14371       -3.16497        1.81529
N          1.43387       -3.02603        3.95482
O          2.83894       -0.94462       -1.58620
H         -2.40966        0.59240        0.18262
H         -1.48629        0.49252       -1.31371
H         -1.24995       -1.35505        1.10784
H         -1.89749       -1.76787       -0.47789
H          0.29893       -1.48891       -1.52328
H          0.43565       -2.59928       -0.16668
H          1.23422       -0.78187        1.28431
H          1.13203        1.01470       -1.17661
H          1.78519        1.47063        0.38668
H         -0.55441        2.27064        0.08120
H         -0.40607        1.18320        1.45931
H          4.99368       -0.80745        2.24967
H          3.91067        1.41907        2.32213
H          2.07116        1.49491        3.92288
H          0.82228       -0.50593        4.53766
H          4.14405       -2.43419        3.41113
H          2.40531       -2.91639        1.23410
H          0.44181       -2.90896        4.13584
H          1.66435       -3.83312        3.37223
H          3.78625       -0.69073       -1.66496

--Link1--
%chk=JID_8618.chk
%mem=8GB
%nprocshared=4
# B3LYP/6-311++G(d,p) empiricaldispersion=gd3bj scf=xqc pop=npa geom=check

CID_148632736_JID_8618_Energie_neutraal

0 1

--Link1--
%chk=JID_8618.chk
%mem=8GB
%nprocshared=4
# B3LYP/6-311++G(d,p) empiricaldispersion=gd3bj scf=xqc pop=npa geom=check

CID_148632736_JID_8618_Energie_kation

1 2

--Link1--
%chk=JID_8618.chk
%mem=8GB
%nprocshared=4
# B3LYP/6-311++G(d,p) empiricaldispersion=gd3bj scf=xqc pop=npa geom=check

CID_148632736_JID_8618_Energie_anion

-1 2
