%chk=JID_3143.chk
%mem=8GB
%nprocshared=4
# opt freq B3LYP/6-31G(d) empiricaldispersion=gd3bj scf=xqc

CID_115832587_JID_3143_neutraal

0 1
C          0.96061       -0.08773       -0.02744
C          0.66151        0.01751        1.45968
C          1.08195        1.35596        2.07098
C          0.33152        2.58949        1.54801
C         -1.21018        2.59312        1.72956
C         -1.63010        2.27645        3.19173
C         -1.16077        3.28048        4.23657
C         -1.82952        3.93340        1.21035
C         -1.50327        4.28858       -0.26179
C         -1.75189        3.23226       -1.34803
C         -3.20231        2.88204       -1.68031
C         -4.03377        4.07125       -2.13368
N         -3.27525        3.97083        1.44552
H          0.36664        0.62230       -0.60796
H          0.72155       -1.09326       -0.38831
H          2.01970        0.10086       -0.22956
H         -0.40273       -0.17145        1.63420
H          1.20646       -0.78162        1.97689
H          0.97898        1.29494        3.16018
H          2.15366        1.50543        1.88627
H          0.75229        3.47453        2.04208
H          0.57755        2.70304        0.48707
H         -1.61988        1.77993        1.11605
H         -2.72213        2.19642        3.25299
H         -1.26300        1.28308        3.47323
H         -1.58133        4.27423        4.05994
H         -1.48688        2.95887        5.23132
H         -0.07076        3.36329        4.25856
H         -1.40768        4.74952        1.81046
H         -2.02000        5.21816       -0.53343
H         -0.43829        4.55316       -0.30848
H         -1.27924        3.59637       -2.27026
H         -1.22206        2.30865       -1.09641
H         -3.19262        2.14470       -2.49309
H         -3.68688        2.38393       -0.83676
H         -3.56137        4.57994       -2.98000
H         -5.02551        3.73509       -2.45318
H         -4.17509        4.79811       -1.32963
H         -3.68723        4.78401        0.99194
H         -3.72454        3.14934        1.05025

--Link1--
%chk=JID_3143.chk
%mem=8GB
%nprocshared=4
# B3LYP/6-311++G(d,p) empiricaldispersion=gd3bj scf=xqc pop=npa geom=check

CID_115832587_JID_3143_Energie_neutraal

0 1

--Link1--
%chk=JID_3143.chk
%mem=8GB
%nprocshared=4
# B3LYP/6-311++G(d,p) empiricaldispersion=gd3bj scf=xqc pop=npa geom=check

CID_115832587_JID_3143_Energie_kation

1 2

--Link1--
%chk=JID_3143.chk
%mem=8GB
%nprocshared=4
# B3LYP/6-311++G(d,p) empiricaldispersion=gd3bj scf=xqc pop=npa geom=check

CID_115832587_JID_3143_Energie_anion

-1 2
