%chk=JID_9879.chk
%mem=8GB
%nprocshared=4
# opt freq B3LYP/6-31G(d) empiricaldispersion=gd3bj scf=xqc

CID_112704035_JID_9879_neutraal

0 1
C          1.09848       -0.00334       -0.01703
O          0.92273        0.90430        1.06333
C          0.42354        2.16656        0.61329
C          0.36122        3.12814        1.80264
N          1.68796        3.44049        2.31644
C          2.56012        4.39028        1.86621
O          3.72412        4.37547        2.26114
C          2.02586        5.43728        0.91038
C          3.11513        6.37845        0.40624
N          4.06542        5.68642       -0.45395
C          4.48730        5.95350       -1.72227
O          5.49004        5.34771       -2.11350
C          3.73095        6.96347       -2.65033
C          2.27010        6.54176       -2.87761
C          2.19497        5.29597       -3.75113
O          2.82253        5.53844       -5.00678
C          4.21723        5.80483       -4.86421
C          4.44177        7.05753       -4.02060
N          3.78333        8.30610       -2.01280
H          1.46363       -0.95167        0.38607
H          1.83797        0.38326       -0.72490
H          0.14632       -0.18221       -0.52569
H          1.07813        2.56382       -0.17064
H         -0.58259        2.02520        0.20337
H         -0.14563        4.05341        1.51537
H         -0.18791        2.66913        2.63132
H          2.13344        2.72279        2.87904
H          1.54999        4.93952        0.05957
H          1.26920        6.02184        1.44569
H          2.65038        7.21531       -0.11330
H          3.69117        6.79502        1.24002
H          4.69106        5.04719        0.03010
H          1.73261        6.35518       -1.94521
H          1.73888        7.35357       -3.39333
H          1.14696        5.04864       -3.94909
H          2.65059        4.42419       -3.26753
H          4.62599        5.96242       -5.86776
H          4.71492        4.92149       -4.45157
H          4.03260        7.91127       -4.57861
H          5.51758        7.23723       -3.90490
H          4.76410        8.56430       -1.88536
H          3.39697        8.99855       -2.65412

--Link1--
%chk=JID_9879.chk
%mem=8GB
%nprocshared=4
# B3LYP/6-311++G(d,p) empiricaldispersion=gd3bj scf=xqc pop=npa geom=check

CID_112704035_JID_9879_Energie_neutraal

0 1

--Link1--
%chk=JID_9879.chk
%mem=8GB
%nprocshared=4
# B3LYP/6-311++G(d,p) empiricaldispersion=gd3bj scf=xqc pop=npa geom=check

CID_112704035_JID_9879_Energie_kation

1 2

--Link1--
%chk=JID_9879.chk
%mem=8GB
%nprocshared=4
# B3LYP/6-311++G(d,p) empiricaldispersion=gd3bj scf=xqc pop=npa geom=check

CID_112704035_JID_9879_Energie_anion

-1 2
