%chk=JID_3335.chk
%mem=8GB
%nprocshared=4
# opt freq B3LYP/6-31G(d) empiricaldispersion=gd3bj scf=xqc

CID_149520430_JID_3335_neutraal

0 1
C          0.91857       -0.03001        0.04969
C          0.22614        1.22770        0.62238
C          1.32400        2.31362        0.72165
C          0.89772        3.70140        1.19865
C          0.08915        4.44385        0.13928
C         -1.41344        4.13437        0.16368
C         -1.75029        2.66800        0.53951
N         -0.95167        1.64885       -0.19480
N         -1.83034        0.49634       -0.41432
N         -2.07327        4.47528       -1.11290
C         -2.09688        5.90016       -1.44532
C         -1.06448        6.25249       -2.51751
C         -3.50059        6.22410       -1.96103
H          1.18223        0.10563       -1.00532
H          0.28654       -0.91978        0.13739
H          1.84120       -0.25045        0.59891
H         -0.10119        0.97354        1.64057
H          2.09163        1.95349        1.42039
H          1.82903        2.41407       -0.24896
H          1.81335        4.27752        1.38467
H          0.36689        3.65012        2.15552
H          0.51329        4.22651       -0.84932
H          0.22167        5.52234        0.29518
H         -1.87415        4.74849        0.94988
H         -2.82557        2.53474        0.34387
H         -1.66361        2.53170        1.62649
H         -2.68152        0.79340       -0.90260
H         -1.39496       -0.15289       -1.07517
H         -1.65553        3.91905       -1.86015
H         -1.91929        6.52004       -0.55818
H         -1.21361        5.66320       -3.42939
H         -1.14074        7.31089       -2.79025
H         -0.04286        6.07983       -2.16789
H         -4.25908        5.99950       -1.20254
H         -3.58569        7.28797       -2.20815
H         -3.74301        5.65013       -2.86296

--Link1--
%chk=JID_3335.chk
%mem=8GB
%nprocshared=4
# B3LYP/6-311++G(d,p) empiricaldispersion=gd3bj scf=xqc pop=npa geom=check

CID_149520430_JID_3335_Energie_neutraal

0 1

--Link1--
%chk=JID_3335.chk
%mem=8GB
%nprocshared=4
# B3LYP/6-311++G(d,p) empiricaldispersion=gd3bj scf=xqc pop=npa geom=check

CID_149520430_JID_3335_Energie_kation

1 2

--Link1--
%chk=JID_3335.chk
%mem=8GB
%nprocshared=4
# B3LYP/6-311++G(d,p) empiricaldispersion=gd3bj scf=xqc pop=npa geom=check

CID_149520430_JID_3335_Energie_anion

-1 2
