%chk=JID_5202.chk
%mem=8GB
%nprocshared=4
# opt freq B3LYP/6-31G(d) empiricaldispersion=gd3bj scf=xqc

CID_121183454_JID_5202_neutraal

0 1
C          1.30600        0.17900       -0.14100
C          0.36584       -0.98799        0.08962
C         -0.98418       -0.33555        0.31319
N         -0.71275        0.96433        0.92689
C          0.61105        1.39005        0.46499
C         -0.88423        1.00729        2.38700
C         -0.20062       -0.04662        3.30278
N          1.26775       -0.06664        3.27242
C          1.84456       -1.19305        4.04005
C          1.81138       -0.71031        5.50091
C          1.79528        0.81942        5.41048
C          1.92018        1.09908        3.91081
C          3.39197        1.07994        3.53426
C          4.04238       -0.08394        3.35263
C          3.30135       -1.39123        3.52799
H          2.28502       -0.00516        0.31244
H          1.45812        0.33190       -1.21580
H          0.67765       -1.55846        0.97007
H          0.35577       -1.67718       -0.76059
H         -1.46343       -0.16021       -0.65813
H         -1.66882       -0.96733        0.88894
H          1.22176        1.86405        1.23823
H          0.47685        2.15109       -0.31342
H         -0.63209        2.01481        2.74115
H         -1.96381        0.92111        2.57252
H         -0.57920        0.10415        4.32118
H         -0.57070       -1.03457        3.00181
H          1.29676       -2.13382        3.91364
H          0.89878       -1.05424        6.00172
H          2.66627       -1.07070        6.08247
H          0.84709        1.20537        5.80292
H          2.60185        1.26476        6.00362
H          1.48563        2.05876        3.61788
H          3.90855        2.02825        3.43099
H          5.09057       -0.10728        3.07608
H          3.85620       -2.03406        4.22074
H          3.27637       -1.89856        2.55548

--Link1--
%chk=JID_5202.chk
%mem=8GB
%nprocshared=4
# B3LYP/6-311++G(d,p) empiricaldispersion=gd3bj scf=xqc pop=npa geom=check

CID_121183454_JID_5202_Energie_neutraal

0 1

--Link1--
%chk=JID_5202.chk
%mem=8GB
%nprocshared=4
# B3LYP/6-311++G(d,p) empiricaldispersion=gd3bj scf=xqc pop=npa geom=check

CID_121183454_JID_5202_Energie_kation

1 2

--Link1--
%chk=JID_5202.chk
%mem=8GB
%nprocshared=4
# B3LYP/6-311++G(d,p) empiricaldispersion=gd3bj scf=xqc pop=npa geom=check

CID_121183454_JID_5202_Energie_anion

-1 2
