%chk=JID_4447.chk
%mem=8GB
%nprocshared=4
# opt freq B3LYP/6-31G(d) empiricaldispersion=gd3bj scf=xqc

CID_106409833_JID_4447_neutraal

0 1
C          1.02950       -0.08328       -0.04684
C          0.07345        0.79563       -0.87080
C          0.62258        0.78440       -2.31951
C         -1.33866        0.19377       -0.90752
C         -0.00028        2.25027       -0.33031
N         -0.14938        2.64200        0.88960
C         -0.29276        1.77553        2.04576
C         -1.01171        2.53845        3.16215
C         -2.47079        2.66633        2.91391
N         -3.07635        3.84509        2.70686
O         -4.41741        3.48900        2.54469
C         -4.47311        2.14080        2.68880
N         -3.31437        1.57974        2.92705
N          0.04640        3.29051       -1.22220
H          1.29422       -1.00063       -0.58604
H          0.59348       -0.41227        0.89913
H          1.95943        0.45077        0.17841
H          0.74210       -0.23977       -2.69262
H         -0.05051        1.29418       -3.01777
H          1.60075        1.27593       -2.37628
H         -1.78579        0.11539        0.08662
H         -2.01288        0.81351       -1.51021
H         -1.32885       -0.81231       -1.34182
H         -0.84727        0.86139        1.82932
H          0.70519        1.50134        2.40556
H         -0.87632        1.99440        4.10499
H         -0.55847        3.52800        3.29858
H         -5.44488        1.68069        2.59747
H         -0.44804        3.15747       -2.09469
H         -0.22112        4.15788       -0.76451

--Link1--
%chk=JID_4447.chk
%mem=8GB
%nprocshared=4
# B3LYP/6-311++G(d,p) empiricaldispersion=gd3bj scf=xqc pop=npa geom=check

CID_106409833_JID_4447_Energie_neutraal

0 1

--Link1--
%chk=JID_4447.chk
%mem=8GB
%nprocshared=4
# B3LYP/6-311++G(d,p) empiricaldispersion=gd3bj scf=xqc pop=npa geom=check

CID_106409833_JID_4447_Energie_kation

1 2

--Link1--
%chk=JID_4447.chk
%mem=8GB
%nprocshared=4
# B3LYP/6-311++G(d,p) empiricaldispersion=gd3bj scf=xqc pop=npa geom=check

CID_106409833_JID_4447_Energie_anion

-1 2
