%chk=JID_9436.chk
%mem=8GB
%nprocshared=4
# opt freq B3LYP/6-31G(d) empiricaldispersion=gd3bj scf=xqc

CID_54979445_JID_9436_neutraal

0 1
C          0.94066       -0.07970        0.01128
C          1.02827        0.39272       -1.43147
N          1.42016       -0.68074       -2.34662
C          0.33655       -1.34238       -3.08871
C         -0.08385       -0.67886       -4.39912
O         -1.02733       -1.07386       -5.07487
O          0.73013        0.35739       -4.74090
C          0.39261        0.97980       -5.98120
C          2.77669       -0.94397       -2.49347
O          3.61478       -0.35475       -1.79981
C          3.26431       -1.87719       -3.59108
S          2.98646       -3.65381       -3.31906
C          3.51143       -3.96495       -1.63365
C          4.58325       -3.27086       -1.05747
C          4.98404       -3.52754        0.25586
C          4.33597       -4.50216        1.00457
C          3.29167       -5.22819        0.43761
C          2.87148       -4.97681       -0.88063
C          1.75262       -5.81610       -1.44345
H          0.20975       -0.88858        0.11292
H          0.63459        0.74385        0.66350
H          1.90486       -0.45710        0.36650
H          0.06513        0.80406       -1.75444
H          1.75906        1.20692       -1.50050
H          0.61944       -2.36486       -3.33027
H         -0.54067       -1.38463       -2.43349
H          0.49808        0.26784       -6.80589
H         -0.62376        1.38436       -5.94505
H          1.08894        1.80639       -6.14613
H          2.78990       -1.59188       -4.53513
H          4.33846       -1.71254       -3.73143
H          5.13090       -2.51497       -1.61351
H          5.80549       -2.96312        0.68964
H          4.64865       -4.70409        2.02554
H          2.80633       -6.00004        1.03143
H          0.90243       -5.18658       -1.72478
H          2.10018       -6.38265       -2.31379
H          1.38827       -6.54448       -0.71079

--Link1--
%chk=JID_9436.chk
%mem=8GB
%nprocshared=4
# B3LYP/6-311++G(d,p) empiricaldispersion=gd3bj scf=xqc pop=npa geom=check

CID_54979445_JID_9436_Energie_neutraal

0 1

--Link1--
%chk=JID_9436.chk
%mem=8GB
%nprocshared=4
# B3LYP/6-311++G(d,p) empiricaldispersion=gd3bj scf=xqc pop=npa geom=check

CID_54979445_JID_9436_Energie_kation

1 2

--Link1--
%chk=JID_9436.chk
%mem=8GB
%nprocshared=4
# B3LYP/6-311++G(d,p) empiricaldispersion=gd3bj scf=xqc pop=npa geom=check

CID_54979445_JID_9436_Energie_anion

-1 2
