%chk=JID_5020.chk
%mem=8GB
%nprocshared=4
# opt freq B3LYP/6-31G(d) empiricaldispersion=gd3bj scf=xqc

CID_64409616_JID_5020_neutraal

0 1
C          0.97324       -0.09200        0.02864
C          1.37943       -0.80162        1.31114
C          1.42853        0.12058        2.53474
C          0.11042        0.85459        2.87008
C         -1.04292       -0.13115        3.18157
O         -0.72520       -0.91472        4.33754
C         -1.74413       -1.86231        4.62478
N          0.41053        1.70395        4.03086
C         -0.10244        3.07444        4.09335
C         -1.61996        3.26212        3.94711
C         -2.11525        3.41955        2.51209
C         -1.32374        4.47547        1.74664
C          0.18383        4.20098        1.76989
C          0.69265        4.05603        3.21010
C          0.94081        5.31735        1.04735
H         -0.07131        0.23117        0.06170
H          1.08104       -0.76933       -0.82468
H          1.60309        0.78457       -0.15299
H          0.70625       -1.64606        1.49337
H          2.37819       -1.23222        1.16835
H          1.75790       -0.47545        3.39640
H          2.21642        0.86725        2.36220
H         -0.16931        1.44899        2.00382
H         -1.96980        0.41861        3.37495
H         -1.22357       -0.79202        2.32695
H         -2.69295       -1.35593        4.82611
H         -1.85959       -2.56396        3.79309
H         -1.45119       -2.42329        5.51623
H          0.13648        1.18283        4.86910
H          0.13023        3.37501        5.12506
H         -1.89619        4.17514        4.49317
H         -2.16170        2.45226        4.44876
H         -3.17348        3.70682        2.52863
H         -2.07237        2.46606        1.97841
H         -1.52842        5.46168        2.18315
H         -1.68018        4.51108        0.71010
H          0.38477        3.27758        1.21809
H          1.75578        3.78135        3.20367
H          0.64936        5.04292        3.69298
H          2.01657        5.11229        1.03707
H          0.60636        5.40262        0.00801
H          0.78491        6.28632        1.53356

--Link1--
%chk=JID_5020.chk
%mem=8GB
%nprocshared=4
# B3LYP/6-311++G(d,p) empiricaldispersion=gd3bj scf=xqc pop=npa geom=check

CID_64409616_JID_5020_Energie_neutraal

0 1

--Link1--
%chk=JID_5020.chk
%mem=8GB
%nprocshared=4
# B3LYP/6-311++G(d,p) empiricaldispersion=gd3bj scf=xqc pop=npa geom=check

CID_64409616_JID_5020_Energie_kation

1 2

--Link1--
%chk=JID_5020.chk
%mem=8GB
%nprocshared=4
# B3LYP/6-311++G(d,p) empiricaldispersion=gd3bj scf=xqc pop=npa geom=check

CID_64409616_JID_5020_Energie_anion

-1 2
