%chk=JID_5147.chk
%mem=8GB
%nprocshared=4
# opt freq B3LYP/6-31G(d) empiricaldispersion=gd3bj scf=xqc

CID_141871884_JID_5147_neutraal

0 1
C          0.98087       -0.07546       -0.06277
C          0.61777       -1.27396        0.77640
O         -0.12068       -1.14754        1.75974
C          1.25800       -2.62951        0.38106
C          0.86730       -3.84970        1.21466
C          1.14650       -4.66752       -0.11828
C          0.57616       -3.45155       -0.83257
C         -0.92982       -3.24862       -1.09815
O         -1.38458       -2.12507       -1.35220
C         -1.85562       -4.43585       -1.07671
C          0.70689       -6.06421        0.33904
O          0.11742       -6.92509       -0.29692
C          1.19479       -6.22524        1.80019
C          1.55284       -4.78053        2.23114
O          2.24830       -4.50178        3.19557
H          0.37678        0.78434        0.23960
H          0.78211       -0.28864       -1.11567
H          2.03825        0.15981        0.07960
H          2.34717       -2.51982        0.26731
H         -0.19879       -3.79485        1.49989
H          2.21843       -4.75498       -0.38094
H          1.11212       -3.26203       -1.77536
H         -1.49336       -5.19444       -1.77415
H         -1.92117       -4.83837       -0.06403
H         -2.85599       -4.12657       -1.39344
H          0.38453       -6.60437        2.42491
H          2.08794       -6.85180        1.82072

--Link1--
%chk=JID_5147.chk
%mem=8GB
%nprocshared=4
# B3LYP/6-311++G(d,p) empiricaldispersion=gd3bj scf=xqc pop=npa geom=check

CID_141871884_JID_5147_Energie_neutraal

0 1

--Link1--
%chk=JID_5147.chk
%mem=8GB
%nprocshared=4
# B3LYP/6-311++G(d,p) empiricaldispersion=gd3bj scf=xqc pop=npa geom=check

CID_141871884_JID_5147_Energie_kation

1 2

--Link1--
%chk=JID_5147.chk
%mem=8GB
%nprocshared=4
# B3LYP/6-311++G(d,p) empiricaldispersion=gd3bj scf=xqc pop=npa geom=check

CID_141871884_JID_5147_Energie_anion

-1 2
