%chk=JID_10769.chk
%mem=8GB
%nprocshared=4
# opt freq B3LYP/6-31G(d) empiricaldispersion=gd3bj scf=xqc

CID_65734198_JID_10769_neutraal

0 1
C          0.92868        0.04438       -0.05426
C         -0.29702        0.58486       -0.77979
C         -0.39983        0.11280       -2.23086
N         -0.65958       -1.31264       -2.36227
C          0.33357       -2.24604       -2.53514
C         -0.25979       -3.48804       -2.60892
C         -1.65712       -3.29730       -2.51443
C         -1.89146       -1.93729       -2.36672
C         -3.19665       -1.23281       -2.22602
N         -3.76406       -1.00098       -3.54231
S          0.54378       -5.01072       -2.78386
O          0.20969       -5.71388       -1.56443
O          0.12244       -5.47493       -4.08715
N          2.19372       -4.69862       -2.80796
C          2.98715       -4.79224       -1.57935
C          4.00092       -3.65203       -1.52849
C          4.84537       -3.58305       -2.80769
C          3.93344       -3.49460       -4.03833
C          2.92275       -4.63766       -4.07736
C          5.80106       -2.39264       -2.75922
H          0.86940       -1.03967        0.08014
H          1.00499        0.49675        0.93977
H          1.84642        0.27730       -0.60345
H         -1.19641        0.30446       -0.21985
H         -0.24565        1.68007       -0.77565
H         -1.20534        0.64447       -2.74857
H          0.52496        0.33480       -2.77698
H          1.37446       -1.95670       -2.57435
H         -2.41803       -4.06732       -2.55429
H         -3.88703       -1.85025       -1.64070
H         -3.09066       -0.28419       -1.69161
H         -4.60556       -0.43725       -3.45623
H         -3.10640       -0.47648       -4.11294
H          3.49817       -5.76131       -1.55489
H          2.35472       -4.72721       -0.68844
H          4.65082       -3.78304       -0.65521
H          3.46862       -2.70237       -1.38744
H          5.44460       -4.50005       -2.88136
H          3.39500       -2.53795       -4.02901
H          4.53505       -3.51085       -4.95478
H          3.43054       -5.59391       -4.24617
H          2.24695       -4.46671       -4.92088
H          6.46966       -2.46634       -1.89522
H          6.42044       -2.35507       -3.66143
H          5.25502       -1.44585       -2.68444

--Link1--
%chk=JID_10769.chk
%mem=8GB
%nprocshared=4
# B3LYP/6-311++G(d,p) empiricaldispersion=gd3bj scf=xqc pop=npa geom=check

CID_65734198_JID_10769_Energie_neutraal

0 1

--Link1--
%chk=JID_10769.chk
%mem=8GB
%nprocshared=4
# B3LYP/6-311++G(d,p) empiricaldispersion=gd3bj scf=xqc pop=npa geom=check

CID_65734198_JID_10769_Energie_kation

1 2

--Link1--
%chk=JID_10769.chk
%mem=8GB
%nprocshared=4
# B3LYP/6-311++G(d,p) empiricaldispersion=gd3bj scf=xqc pop=npa geom=check

CID_65734198_JID_10769_Energie_anion

-1 2
