%chk=JID_8511.chk
%mem=8GB
%nprocshared=4
# opt freq B3LYP/6-31G(d) empiricaldispersion=gd3bj scf=xqc

CID_115698746_JID_8511_neutraal

0 1
C          0.91680       -0.04713       -0.02926
C         -0.15499       -0.53700       -1.00079
C          0.42107       -1.24598       -2.22685
N          0.43892       -2.74050       -2.14748
C          0.55747       -3.39458       -3.48346
C          1.58517       -2.81022       -4.45709
C          3.03764       -2.96724       -4.04264
S          1.25699       -3.41405       -0.84301
O          2.65875       -3.12585       -1.00084
O          0.53790       -3.07743        0.36228
N          0.98402       -5.04583       -1.02656
C          2.12177       -5.95348       -1.27956
C          3.22029       -5.95822       -0.20925
O          2.80793       -6.53194        1.03213
C          2.38575       -5.60769        2.03608
C          3.46340       -4.63710        2.46157
C          3.22689       -3.31701        2.55757
C          4.81127       -5.21033        2.79084
H          1.53560       -0.84540        0.37984
H          0.44519        0.47407        0.81027
H          1.58509        0.66470       -0.52587
H         -0.89740       -1.15565       -0.48664
H         -0.69144        0.35577       -1.34841
H         -0.22431       -0.97905       -3.07445
H          1.42341       -0.86856       -2.45712
H          0.72150       -4.47077       -3.38827
H         -0.43311       -3.30937       -3.95082
H          1.45796       -3.33081       -5.41501
H          1.38112       -1.75450       -4.66493
H          3.25713       -3.99088       -3.72782
H          3.69511       -2.72933       -4.88541
H          3.29728       -2.27942       -3.23489
H          0.36426       -5.36249       -0.27993
H          1.70036       -6.96298       -1.35504
H          2.55418       -5.71083       -2.25493
H          4.01238       -6.61961       -0.58053
H          3.69930       -4.98890       -0.07150
H          1.47428       -5.10330        1.70889
H          2.10499       -6.20669        2.90990
H          3.99985       -2.61628        2.85752
H          2.25195       -2.89288        2.33336
H          4.72157       -5.97168        3.57117
H          5.26522       -5.66615        1.90558
H          5.50329       -4.44193        3.15310

--Link1--
%chk=JID_8511.chk
%mem=8GB
%nprocshared=4
# B3LYP/6-311++G(d,p) empiricaldispersion=gd3bj scf=xqc pop=npa geom=check

CID_115698746_JID_8511_Energie_neutraal

0 1

--Link1--
%chk=JID_8511.chk
%mem=8GB
%nprocshared=4
# B3LYP/6-311++G(d,p) empiricaldispersion=gd3bj scf=xqc pop=npa geom=check

CID_115698746_JID_8511_Energie_kation

1 2

--Link1--
%chk=JID_8511.chk
%mem=8GB
%nprocshared=4
# B3LYP/6-311++G(d,p) empiricaldispersion=gd3bj scf=xqc pop=npa geom=check

CID_115698746_JID_8511_Energie_anion

-1 2
