%chk=JID_2584.chk
%mem=8GB
%nprocshared=4
# opt freq B3LYP/6-31G(d) empiricaldispersion=gd3bj scf=xqc

CID_22169150_JID_2584_neutraal

0 1
C          1.26600       -0.09700        0.26800
C          0.44271        1.16362        0.47883
C         -1.00003        0.78186        0.14713
C         -0.96313       -0.67295       -0.35564
C          0.48989       -0.86858       -0.78863
C         -2.07622       -0.97023       -1.37056
C         -2.02753       -0.19354       -2.72638
C         -2.28629       -1.30621       -3.76795
C         -3.22372       -2.24269       -2.99933
C         -2.23215       -2.44398       -1.84233
C         -1.03869       -2.88188       -2.65746
C         -1.06451       -2.19236       -3.80787
H          1.31216       -0.67492        1.19883
H          2.29080        0.12320       -0.04465
H          0.54271        1.54783        1.49868
H          0.78028        1.95177       -0.20451
H         -1.39831        1.47255       -0.60419
H         -1.64205        0.86459        1.03127
H         -1.13548       -1.32416        0.51401
H          0.68773       -0.44264       -1.77732
H          0.78857       -1.92031       -0.79583
H         -3.02102       -0.69136       -0.87841
H         -2.83328        0.54948       -2.75232
H         -1.08176        0.32711       -2.90327
H         -2.64755       -0.97691       -4.74250
H         -3.45922       -3.16863       -3.54007
H         -4.16059       -1.76260       -2.69434
H         -2.56162       -3.15429       -1.08288
H         -0.28129       -3.58363       -2.34297
H         -0.33221       -2.22706       -4.59986

--Link1--
%chk=JID_2584.chk
%mem=8GB
%nprocshared=4
# B3LYP/6-311++G(d,p) empiricaldispersion=gd3bj scf=xqc pop=npa geom=check

CID_22169150_JID_2584_Energie_neutraal

0 1

--Link1--
%chk=JID_2584.chk
%mem=8GB
%nprocshared=4
# B3LYP/6-311++G(d,p) empiricaldispersion=gd3bj scf=xqc pop=npa geom=check

CID_22169150_JID_2584_Energie_kation

1 2

--Link1--
%chk=JID_2584.chk
%mem=8GB
%nprocshared=4
# B3LYP/6-311++G(d,p) empiricaldispersion=gd3bj scf=xqc pop=npa geom=check

CID_22169150_JID_2584_Energie_anion

-1 2
