%chk=JID_3281.chk
%mem=8GB
%nprocshared=4
# opt freq B3LYP/6-31G(d) empiricaldispersion=gd3bj scf=xqc

CID_140337366_JID_3281_neutraal

0 1
C          1.01771       -0.06098       -0.07725
C          0.69963        0.13291        1.41066
C          1.27024        1.48670        1.85239
C         -0.78575        0.00247        1.80956
C         -1.80204        0.75108        0.95542
C         -1.76483       -0.74444        0.91146
C         -1.08782       -0.00768        3.32499
C         -0.64139       -1.24096        4.15081
C          0.82784       -1.15321        4.62348
C          1.44697       -2.51715        4.92570
C          1.27081       -3.49300        3.76264
C         -0.15187       -3.55495        3.30350
C         -1.01364       -2.55189        3.50312
H          0.51686        0.67777       -0.70961
H          0.72663       -1.05904       -0.41861
H          2.09530        0.03160       -0.25519
H          1.25072       -0.66546        1.91264
H          0.71955        2.31540        1.39404
H          1.21876        1.61520        2.93708
H          2.32354        1.58086        1.56707
H         -2.65329        1.21848        1.43984
H         -1.47766        1.29111        0.07427
H         -1.41672       -1.22492        0.00615
H         -2.60223       -1.27019        1.35825
H         -0.69067        0.90523        3.78359
H         -2.17796        0.07374        3.44954
H         -1.23568       -1.20596        5.07691
H          0.87501       -0.53119        5.52680
H          1.46214       -0.64311        3.89869
H          2.51410       -2.39908        5.14665
H          0.98120       -2.93358        5.82788
H          1.90414       -3.20355        2.91599
H          1.59184       -4.49015        4.08318
H         -0.48580       -4.46347        2.80795
H         -2.04946       -2.67413        3.19326

--Link1--
%chk=JID_3281.chk
%mem=8GB
%nprocshared=4
# B3LYP/6-311++G(d,p) empiricaldispersion=gd3bj scf=xqc pop=npa geom=check

CID_140337366_JID_3281_Energie_neutraal

0 1

--Link1--
%chk=JID_3281.chk
%mem=8GB
%nprocshared=4
# B3LYP/6-311++G(d,p) empiricaldispersion=gd3bj scf=xqc pop=npa geom=check

CID_140337366_JID_3281_Energie_kation

1 2

--Link1--
%chk=JID_3281.chk
%mem=8GB
%nprocshared=4
# B3LYP/6-311++G(d,p) empiricaldispersion=gd3bj scf=xqc pop=npa geom=check

CID_140337366_JID_3281_Energie_anion

-1 2
