%chk=JID_5769.chk
%mem=8GB
%nprocshared=4
# opt freq B3LYP/6-31G(d) empiricaldispersion=gd3bj scf=xqc

CID_116754539_JID_5769_neutraal

0 1
C          2.49600       -0.00700       -0.12600
C          1.04880       -0.01444        0.36778
C          0.34137        1.29077       -0.02214
C         -1.14012        1.27861        0.36004
C         -1.91137        0.04500       -0.18477
C         -1.17131       -1.23436        0.26641
C          0.29927       -1.24859       -0.15690
C         -2.01492        0.13795       -1.75124
C         -2.62541       -1.06474       -2.51458
C         -4.11340       -1.33357       -2.38554
C         -4.99897       -0.73642       -3.20231
C         -4.55333       -2.37400       -1.39606
O         -2.74165        1.32647       -2.10911
O         -3.27585        0.10847        0.28622
C         -3.52223       -0.17475        1.65497
H          2.54309        0.04971       -1.21879
H          3.04114        0.85055        0.28216
H          3.01776       -0.91683        0.18882
H          1.07038       -0.07301        1.46450
H          0.82948        2.13464        0.48134
H          0.45121        1.47646       -1.09657
H         -1.61886        2.20856        0.03015
H         -1.19929        1.30551        1.45426
H         -1.68260       -2.13255       -0.09555
H         -1.19848       -1.31675        1.36029
H          0.37760       -1.30759       -1.24860
H          0.77286       -2.15715        0.23514
H         -1.01328        0.27204       -2.17117
H         -2.43067       -0.88356       -3.58262
H         -2.06637       -1.98051       -2.29139
H         -6.06206       -0.94883       -3.14962
H         -4.67881       -0.01052       -3.94534
H         -3.95828       -3.28587       -1.50747
H         -4.44803       -2.01652       -0.37100
H         -5.60330       -2.65270       -1.53950
H         -3.56615        1.26744       -1.58449
H         -3.37106       -1.23755        1.86269
H         -2.91095        0.43514        2.32254
H         -4.57253        0.05267        1.85921

--Link1--
%chk=JID_5769.chk
%mem=8GB
%nprocshared=4
# B3LYP/6-311++G(d,p) empiricaldispersion=gd3bj scf=xqc pop=npa geom=check

CID_116754539_JID_5769_Energie_neutraal

0 1

--Link1--
%chk=JID_5769.chk
%mem=8GB
%nprocshared=4
# B3LYP/6-311++G(d,p) empiricaldispersion=gd3bj scf=xqc pop=npa geom=check

CID_116754539_JID_5769_Energie_kation

1 2

--Link1--
%chk=JID_5769.chk
%mem=8GB
%nprocshared=4
# B3LYP/6-311++G(d,p) empiricaldispersion=gd3bj scf=xqc pop=npa geom=check

CID_116754539_JID_5769_Energie_anion

-1 2
