%chk=JID_6623.chk
%mem=8GB
%nprocshared=4
# opt freq B3LYP/6-31G(d) empiricaldispersion=gd3bj scf=xqc

CID_14402796_JID_6623_neutraal

0 1
C          0.91406       -0.01816        0.04779
C          0.27781       -0.37114        1.37963
O          1.23674       -0.55807        2.41654
C          2.05775       -1.72606        2.30095
C          1.28267       -3.03741        2.49100
N          0.81108       -3.52020        1.18705
C         -0.20219       -4.31474        1.11514
C         -0.98934       -4.80444        2.26494
C         -0.66600       -6.02984        2.84861
C         -1.42713       -6.49365        3.92109
C         -2.49803       -5.73401        4.39913
C         -2.81420       -4.50898        3.80720
C         -2.06085       -4.04038        2.73212
C         -0.65646       -4.81816       -0.25523
C         -1.00345       -3.64122       -1.16319
C          0.42805       -5.69330       -0.87801
H          1.62511        0.80589        0.16437
H          0.14885        0.27343       -0.67770
H          1.46527       -0.86654       -0.36823
H         -0.35144        0.46903        1.69315
H         -0.38625       -1.23506        1.29302
H          2.62651       -1.70910        1.36548
H          2.78740       -1.64504        3.11437
H          1.96399       -3.79193        2.90006
H          0.46977       -2.86872        3.20352
H          0.16974       -6.61667        2.47780
H         -1.18691       -7.44588        4.38770
H         -3.08734       -6.09701        5.23824
H         -3.64559       -3.92014        4.18690
H         -2.29993       -3.08524        2.27241
H         -1.55917       -5.42889       -0.12934
H         -0.12582       -3.02012       -1.37356
H         -1.40315       -3.99460       -2.11940
H         -1.75764       -2.99898       -0.69573
H          0.68178       -6.52876       -0.21666
H          0.09076       -6.10839       -1.83347
H          1.34814       -5.12733       -1.06072

--Link1--
%chk=JID_6623.chk
%mem=8GB
%nprocshared=4
# B3LYP/6-311++G(d,p) empiricaldispersion=gd3bj scf=xqc pop=npa geom=check

CID_14402796_JID_6623_Energie_neutraal

0 1

--Link1--
%chk=JID_6623.chk
%mem=8GB
%nprocshared=4
# B3LYP/6-311++G(d,p) empiricaldispersion=gd3bj scf=xqc pop=npa geom=check

CID_14402796_JID_6623_Energie_kation

1 2

--Link1--
%chk=JID_6623.chk
%mem=8GB
%nprocshared=4
# B3LYP/6-311++G(d,p) empiricaldispersion=gd3bj scf=xqc pop=npa geom=check

CID_14402796_JID_6623_Energie_anion

-1 2
