%chk=JID_9324.chk
%mem=8GB
%nprocshared=4
# opt freq B3LYP/6-31G(d) empiricaldispersion=gd3bj scf=xqc

CID_63343193_JID_9324_neutraal

0 1
C          2.62500       -0.32100        0.00300
C          1.16333       -0.01509       -0.07794
C          0.13373       -0.94730       -0.00044
S         -1.40626       -0.20707       -0.17839
C         -0.72516        1.34744       -0.32789
C          0.64765        1.31299       -0.26225
C          0.22731       -2.36992        0.20401
N          1.29630       -2.98673        0.67108
C          0.90710       -4.30623        0.69713
N         -0.34512       -4.52301        0.27220
O         -0.79961       -3.24675       -0.05122
C          1.80994       -5.39676        1.20803
C          1.04442       -6.49780        1.95893
N          2.70881       -5.99081        0.19157
C          2.06367       -6.59212       -0.98691
C          1.93021       -5.68189       -2.23037
N          3.19164       -5.01770       -2.59628
C          3.67945       -4.26338       -1.43223
C          3.85406       -5.14151       -0.17466
H          2.91833       -1.00628       -0.79798
H          3.22509        0.58904       -0.10180
H          2.87355       -0.77267        0.96846
H         -1.36038        2.21249       -0.46196
H          1.26223        2.20202       -0.34625
H          2.44513       -4.93683        1.97855
H          0.32020       -7.02031        1.32547
H          1.73576       -7.24371        2.36718
H          0.48713       -6.07057        2.80102
H          2.68554       -7.45014       -1.27675
H          1.08571       -7.02246       -0.74759
H          1.15456       -4.92438       -2.07846
H          1.60220       -6.29004       -3.08106
H          3.87635       -5.74364       -2.80976
H          3.00051       -3.42985       -1.23300
H          4.64621       -3.81609       -1.68995
H          4.17567       -4.51601        0.66704
H          4.69787       -5.81946       -0.36215

--Link1--
%chk=JID_9324.chk
%mem=8GB
%nprocshared=4
# B3LYP/6-311++G(d,p) empiricaldispersion=gd3bj scf=xqc pop=npa geom=check

CID_63343193_JID_9324_Energie_neutraal

0 1

--Link1--
%chk=JID_9324.chk
%mem=8GB
%nprocshared=4
# B3LYP/6-311++G(d,p) empiricaldispersion=gd3bj scf=xqc pop=npa geom=check

CID_63343193_JID_9324_Energie_kation

1 2

--Link1--
%chk=JID_9324.chk
%mem=8GB
%nprocshared=4
# B3LYP/6-311++G(d,p) empiricaldispersion=gd3bj scf=xqc pop=npa geom=check

CID_63343193_JID_9324_Energie_anion

-1 2
