%chk=JID_9212.chk
%mem=8GB
%nprocshared=4
# opt freq B3LYP/6-31G(d) empiricaldispersion=gd3bj scf=xqc

CID_79243759_JID_9212_neutraal

0 1
C          0.98212       -0.01219       -0.09763
C          0.32114       -1.15974       -0.84560
C         -0.08657       -2.29076        0.08987
O         -1.19794       -1.88476        0.89103
C         -1.49267       -2.83277        1.92664
C         -3.00960       -2.94052        2.08570
C         -3.58999       -1.77360        2.87499
C         -2.86045       -1.61123        4.20756
N         -1.41838       -1.36846        4.06176
C         -0.79256       -2.43674        3.25109
C         -1.16076       -0.00945        3.53080
C          0.11116        0.68210        4.00153
N          0.18869        2.01099        3.70864
C          1.26997        2.71348        4.10005
C          2.31589        2.10897        4.78798
C          2.24395        0.75287        5.08612
C          1.12383        0.02959        4.69538
N          1.34528        4.09883        3.86916
C          0.20407        4.64867        3.15731
H          1.85994       -0.35692        0.45815
H          0.28837        0.45257        0.60833
H          1.30865        0.75905       -0.80244
H         -0.55779       -0.77682       -1.37661
H          1.02443       -1.54504       -1.59217
H         -0.39197       -3.15827       -0.50638
H          0.75902       -2.58245        0.72337
H         -1.12884       -3.82233        1.61833
H         -3.49440       -2.98852        1.10377
H         -3.24713       -3.87204        2.61470
H         -3.52811       -0.85150        2.28521
H         -4.65449       -1.95622        3.06230
H         -3.32644       -0.80883        4.79292
H         -3.00027       -2.51993        4.80794
H         -0.76528       -3.33132        3.88736
H          0.25459       -2.18593        3.04884
H         -1.18851        0.01682        2.43795
H         -1.96730        0.65814        3.86530
H          3.16821        2.69402        5.11548
H          3.04488        0.26965        5.63690
H          1.04503       -1.02044        4.95175
H          2.22437        4.30775        3.40698
H         -0.72676        4.50398        3.71719
H          0.34596        5.72782        3.03913
H          0.10431        4.21570        2.15604

--Link1--
%chk=JID_9212.chk
%mem=8GB
%nprocshared=4
# B3LYP/6-311++G(d,p) empiricaldispersion=gd3bj scf=xqc pop=npa geom=check

CID_79243759_JID_9212_Energie_neutraal

0 1

--Link1--
%chk=JID_9212.chk
%mem=8GB
%nprocshared=4
# B3LYP/6-311++G(d,p) empiricaldispersion=gd3bj scf=xqc pop=npa geom=check

CID_79243759_JID_9212_Energie_kation

1 2

--Link1--
%chk=JID_9212.chk
%mem=8GB
%nprocshared=4
# B3LYP/6-311++G(d,p) empiricaldispersion=gd3bj scf=xqc pop=npa geom=check

CID_79243759_JID_9212_Energie_anion

-1 2
