%chk=JID_8296.chk
%mem=8GB
%nprocshared=4
# opt freq B3LYP/6-31G(d) empiricaldispersion=gd3bj scf=xqc

CID_61688508_JID_8296_neutraal

0 1
C          1.06792        0.03923       -0.06203
C          1.77829       -0.22588        1.25342
O          2.15348       -1.59646        1.37543
C          3.33209       -1.93047        0.63181
C          3.72266       -3.38137        0.92692
O          3.03591       -4.36808        0.14959
C          1.61273       -4.38175        0.21823
C          1.01859       -5.31325        1.28644
C          1.36950       -4.98979        2.75096
N          0.83888       -3.67609        3.15419
C          1.06125       -3.39060        4.58085
C          2.50389       -3.13715        4.88563
N          3.08334       -1.97461        4.55285
O          4.40241       -2.08156        4.95361
C          4.60576       -3.29761        5.52516
C          3.42918       -4.00425        5.51552
C          5.97056       -3.57544        6.00359
O         -0.41528       -5.28736        1.16774
H          1.74480       -0.08480       -0.91240
H          0.67306        1.05904       -0.08755
H          0.24137       -0.66484       -0.20277
H          2.64879        0.42766        1.37793
H          1.08889       -0.01246        2.07695
H          3.15000       -1.79859       -0.43881
H          4.14430       -1.27014        0.95504
H          4.78179       -3.50587        0.67652
H          3.62181       -3.60530        1.98882
H          1.17435       -3.38267        0.25976
H          1.27672       -4.76571       -0.75396
H          1.34567       -6.33846        1.07826
H          0.89059       -5.75160        3.37965
H          2.44711       -5.07479        2.90752
H          1.30957       -2.93024        2.61851
H          0.47964       -2.49918        4.84463
H          0.66970       -4.20603        5.20052
H          3.26059       -5.00168        5.89203
H          6.70436       -3.36598        5.21902
H          6.20564       -2.95234        6.87172
H          6.07795       -4.62447        6.29619
H         -0.69175       -4.51670        1.70582

--Link1--
%chk=JID_8296.chk
%mem=8GB
%nprocshared=4
# B3LYP/6-311++G(d,p) empiricaldispersion=gd3bj scf=xqc pop=npa geom=check

CID_61688508_JID_8296_Energie_neutraal

0 1

--Link1--
%chk=JID_8296.chk
%mem=8GB
%nprocshared=4
# B3LYP/6-311++G(d,p) empiricaldispersion=gd3bj scf=xqc pop=npa geom=check

CID_61688508_JID_8296_Energie_kation

1 2

--Link1--
%chk=JID_8296.chk
%mem=8GB
%nprocshared=4
# B3LYP/6-311++G(d,p) empiricaldispersion=gd3bj scf=xqc pop=npa geom=check

CID_61688508_JID_8296_Energie_anion

-1 2
