%chk=JID_9875.chk
%mem=8GB
%nprocshared=4
# opt freq B3LYP/6-31G(d) empiricaldispersion=gd3bj scf=xqc

CID_132042944_JID_9875_neutraal

0 1
C          1.02149       -0.09439       -0.02508
C          2.25281       -0.36204        0.95552
C          2.22879        1.13185        0.92352
C          2.11944        0.86660       -0.71974
C          3.62450        1.04748       -0.52822
C          3.67621       -0.46018       -0.07511
C          2.80538       -1.82638       -0.69314
C          2.56327       -0.58924       -1.68448
N          3.97009       -0.69677       -1.52386
C          5.04790       -1.01464       -2.28169
O          4.99731       -1.23756       -3.48432
O          6.17064       -1.05809       -1.52090
C          7.35784       -1.48328       -2.19574
C          7.56304       -2.95745       -1.95980
C          8.13501       -3.41473       -0.76436
C          8.29759       -4.78208       -0.53577
C          7.88253       -5.70428       -1.49490
C          7.30044       -5.26101       -2.68108
C          7.13743       -3.89427       -2.91153
H          0.13207        0.39942        0.40275
H          0.56585       -0.90801       -0.60260
H          2.16125       -0.90344        1.89248
H          3.02397        1.59030        1.53446
H          1.35281        1.64492        1.36519
H          4.10997        1.75639        0.15735
H          4.09012        1.36850       -1.48040
H          3.39062       -2.69630       -1.04754
H          1.97025       -2.28914       -0.15602
H          2.12997       -0.75861       -2.66837
H          7.35066       -1.24106       -3.26560
H          8.19763       -0.92262       -1.76871
H          8.45045       -2.70569       -0.00226
H          8.74287       -5.12806        0.39323
H          8.00597       -6.76889       -1.31527
H          6.96661       -5.97909       -3.42549
H          6.66623       -3.56136       -3.83508

--Link1--
%chk=JID_9875.chk
%mem=8GB
%nprocshared=4
# B3LYP/6-311++G(d,p) empiricaldispersion=gd3bj scf=xqc pop=npa geom=check

CID_132042944_JID_9875_Energie_neutraal

0 1

--Link1--
%chk=JID_9875.chk
%mem=8GB
%nprocshared=4
# B3LYP/6-311++G(d,p) empiricaldispersion=gd3bj scf=xqc pop=npa geom=check

CID_132042944_JID_9875_Energie_kation

1 2

--Link1--
%chk=JID_9875.chk
%mem=8GB
%nprocshared=4
# B3LYP/6-311++G(d,p) empiricaldispersion=gd3bj scf=xqc pop=npa geom=check

CID_132042944_JID_9875_Energie_anion

-1 2
