%chk=JID_6993.chk
%mem=8GB
%nprocshared=4
# opt=(cartesian,calcfc) freq B3LYP/6-31G(d) empiricaldispersion=gd3bj scf=xqc

CID_115528056_JID_6993_neutraal

0 1
C          2.49600       -0.00700       -0.12600
C          1.03989       -0.02676        0.33485
C          0.29762        1.21804       -0.16059
C         -1.16600        1.19533        0.26467
C         -1.86859       -0.07926       -0.19455
C         -1.14008       -1.35110        0.28544
C          0.33953       -1.30768       -0.14121
C         -1.86353       -2.61890       -0.23114
C         -1.23214       -3.90592        0.26754
N         -1.44450       -4.22416        1.56855
C         -0.88051       -5.36214        2.01688
N         -0.13836       -6.19553        1.26596
C          0.03209       -5.84922       -0.02251
C         -0.49429       -4.70847       -0.57979
C         -1.06711       -5.71553        3.45888
O         -3.22225       -2.59161        0.23111
H          2.56845       -0.01654       -1.21886
H          3.00667        0.89017        0.23940
H          3.03661       -0.87904        0.25679
H          1.03578       -0.01896        1.43309
H          0.77531        2.12220        0.23515
H          0.35680        1.27989       -1.25478
H         -1.68242        2.06871       -0.14958
H         -1.23136        1.27475        1.35678
H         -1.93066       -0.08125       -1.29042
H         -2.89819       -0.06447        0.18132
H         -1.18169       -1.35072        1.38435
H          0.40836       -1.38434       -1.23444
H          0.87589       -2.16959        0.27248
H         -1.90243       -2.61492       -1.32663
H          0.62691       -6.54002       -0.61302
H         -0.33360       -4.46336       -1.62095
H         -1.43772       -6.74085        3.54951
H         -0.11181       -5.63538        3.98598
H         -1.78652       -5.04435        3.93779
H         -3.22086       -3.11035        1.06099

--Link1--
%chk=JID_6993.chk
%mem=8GB
%nprocshared=4
# B3LYP/6-311++G(d,p) empiricaldispersion=gd3bj scf=xqc pop=npa geom=check

CID_115528056_JID_6993_Energie_neutraal

0 1

--Link1--
%chk=JID_6993.chk
%mem=8GB
%nprocshared=4
# B3LYP/6-311++G(d,p) empiricaldispersion=gd3bj scf=xqc pop=npa geom=check

CID_115528056_JID_6993_Energie_kation

1 2

--Link1--
%chk=JID_6993.chk
%mem=8GB
%nprocshared=4
# B3LYP/6-311++G(d,p) empiricaldispersion=gd3bj scf=xqc pop=npa geom=check

CID_115528056_JID_6993_Energie_anion

-1 2
