%chk=JID_5419.chk
%mem=8GB
%nprocshared=4
# opt freq B3LYP/6-31G(d) empiricaldispersion=gd3bj scf=xqc

CID_47320220_JID_5419_neutraal

0 1
C          1.09827       -0.00246       -0.01836
C          0.69917        0.83301       -1.23336
C          0.76822        0.00447       -2.53063
O         -0.16579       -1.08446       -2.44408
C          0.37281       -2.33295       -2.57607
C          1.31965       -2.67765       -3.53972
C          1.80951       -3.98459       -3.59591
C          1.33695       -4.94920       -2.70565
C          0.36290       -4.61284       -1.76728
C         -0.12501       -3.30752       -1.71039
N         -0.68300        1.32086       -1.00531
S         -1.12487        2.80947       -1.63897
O         -0.25513        3.10847       -2.75370
O         -2.56281        2.77363       -1.77906
C         -0.72811        3.89270       -0.28394
H          0.39012       -0.81549        0.17277
H          1.11946        0.62167        0.88225
H          2.09511       -0.43532       -0.15078
H          1.39304        1.67882       -1.29838
H          0.48004        0.61054       -3.39565
H          1.80507       -0.32039       -2.67783
H          1.67382       -1.94985       -4.26327
H          2.55371       -4.25344       -4.34117
H          1.71803       -5.96614       -2.75208
H         -0.01927       -5.36544       -1.08283
H         -0.88815       -3.04670       -0.98206
H         -1.40994        0.61438       -1.15815
H         -1.29973        3.58612        0.59415
H          0.34497        3.84326       -0.09096
H         -1.00721        4.90848       -0.57203

--Link1--
%chk=JID_5419.chk
%mem=8GB
%nprocshared=4
# B3LYP/6-311++G(d,p) empiricaldispersion=gd3bj scf=xqc pop=npa geom=check

CID_47320220_JID_5419_Energie_neutraal

0 1

--Link1--
%chk=JID_5419.chk
%mem=8GB
%nprocshared=4
# B3LYP/6-311++G(d,p) empiricaldispersion=gd3bj scf=xqc pop=npa geom=check

CID_47320220_JID_5419_Energie_kation

1 2

--Link1--
%chk=JID_5419.chk
%mem=8GB
%nprocshared=4
# B3LYP/6-311++G(d,p) empiricaldispersion=gd3bj scf=xqc pop=npa geom=check

CID_47320220_JID_5419_Energie_anion

-1 2
