%chk=JID_4545.chk
%mem=8GB
%nprocshared=4
# opt freq B3LYP/6-31G(d) empiricaldispersion=gd3bj scf=xqc

CID_115693410_JID_4545_neutraal

0 1
C          2.16200       -0.05000        0.00200
N          0.73820        0.15381       -0.05691
C          0.03710        1.32943        0.00169
C         -1.27521        0.91310       -0.08613
N         -1.32540       -0.44520       -0.20465
N         -0.08167       -0.90282       -0.18732
C          0.63879        2.67456        0.15898
N          0.06381        3.58604       -0.82463
C          0.72770        4.89492       -0.85723
C          0.57916        5.65241        0.47936
C          0.95916        7.12504        0.33291
C          0.07673        7.82427       -0.70157
C         -0.13269        7.00011       -1.93627
C          0.17048        5.69445       -2.00923
H          2.53679        0.38364        0.93233
H          2.38224       -1.12056       -0.01983
H          2.61693        0.43888       -0.86287
H         -2.17118        1.51762       -0.07375
H          0.42934        3.02115        1.17706
H          1.72656        2.62879        0.03758
H          0.14571        3.15680       -1.74537
H          1.79564        4.74679       -1.06722
H          1.21823        5.19735        1.24534
H         -0.45472        5.58585        0.84475
H          0.86869        7.63488        1.29875
H          2.01187        7.19987        0.03130
H         -0.90302        8.04934       -0.26393
H          0.53559        8.78124       -0.97449
H         -0.55082        7.50304       -2.80481
H          0.01395        5.17936       -2.95393

--Link1--
%chk=JID_4545.chk
%mem=8GB
%nprocshared=4
# B3LYP/6-311++G(d,p) empiricaldispersion=gd3bj scf=xqc pop=npa geom=check

CID_115693410_JID_4545_Energie_neutraal

0 1

--Link1--
%chk=JID_4545.chk
%mem=8GB
%nprocshared=4
# B3LYP/6-311++G(d,p) empiricaldispersion=gd3bj scf=xqc pop=npa geom=check

CID_115693410_JID_4545_Energie_kation

1 2

--Link1--
%chk=JID_4545.chk
%mem=8GB
%nprocshared=4
# B3LYP/6-311++G(d,p) empiricaldispersion=gd3bj scf=xqc pop=npa geom=check

CID_115693410_JID_4545_Energie_anion

-1 2
