%chk=JID_3105.chk
%mem=8GB
%nprocshared=4
# opt freq B3LYP/6-31G(d) empiricaldispersion=gd3bj scf=xqc

CID_115386721_JID_3105_neutraal

0 1
C          1.05929       -0.04677       -0.06555
C          0.63759       -1.45635       -0.46473
C          1.07749       -2.55987        0.52436
C          0.53337       -2.25077        1.93480
C          0.66355       -4.01265        0.07399
C          1.10942       -4.37781       -1.39820
C          1.59617       -5.83552       -1.64160
S          0.33102       -7.13055       -1.31910
C         -0.96102       -6.61579       -2.49531
C         -1.45598       -5.19345       -2.27218
S         -0.20471       -3.91619       -2.63232
C          2.23731       -6.04836       -3.01928
N          1.19444       -4.94135        1.09027
H          0.50822        0.30858        0.80974
H          0.85056        0.65039       -0.88389
H          2.13118       -0.00255        0.15100
H         -0.45124       -1.47831       -0.59114
H          1.08768       -1.64025       -1.44441
H          2.17495       -2.52728        0.58257
H         -0.56124       -2.21293        1.93169
H          0.84388       -2.99983        2.66961
H          0.90781       -1.29256        2.30716
H         -0.42698       -4.07916        0.15479
H          1.96866       -3.73897       -1.63903
H          2.40041       -6.03997       -0.92474
H         -1.80154       -7.30496       -2.35836
H         -0.60779       -6.76222       -3.52125
H         -1.84838       -5.06078       -1.25911
H         -2.29437       -5.00627       -2.95219
H          3.04402       -5.32324       -3.17589
H          2.68538       -7.04612       -3.09127
H          1.53367       -5.93880       -3.84899
H          0.88783       -5.89508        0.88225
H          2.21234       -4.94573        1.08300

--Link1--
%chk=JID_3105.chk
%mem=8GB
%nprocshared=4
# B3LYP/6-311++G(d,p) empiricaldispersion=gd3bj scf=xqc pop=npa geom=check

CID_115386721_JID_3105_Energie_neutraal

0 1

--Link1--
%chk=JID_3105.chk
%mem=8GB
%nprocshared=4
# B3LYP/6-311++G(d,p) empiricaldispersion=gd3bj scf=xqc pop=npa geom=check

CID_115386721_JID_3105_Energie_kation

1 2

--Link1--
%chk=JID_3105.chk
%mem=8GB
%nprocshared=4
# B3LYP/6-311++G(d,p) empiricaldispersion=gd3bj scf=xqc pop=npa geom=check

CID_115386721_JID_3105_Energie_anion

-1 2
