%chk=JID_10191.chk
%mem=8GB
%nprocshared=4
# opt freq B3LYP/6-31G(d) empiricaldispersion=gd3bj scf=xqc

CID_114387660_JID_10191_neutraal

0 1
C          1.01243        0.08617        0.04919
C          1.05937        1.57586       -0.26829
C          1.41896        1.90431       -1.69806
C          1.48190        3.21863       -2.14455
N          1.80444        3.46311       -3.42919
N          2.02962        2.41437       -4.26664
C          1.93647        1.15486       -3.81125
N          1.66414        0.86177       -2.53115
N          2.14349        0.04855       -4.62120
C          2.27887       -0.04903       -5.96829
O          2.47507       -1.16537       -6.46061
C          2.14541        1.15252       -6.87495
C          0.68341        1.42859       -7.23393
C          0.57539        2.77925       -7.98066
N         -0.81798        3.13809       -8.31170
C         -1.61021        3.10639       -7.06823
C         -1.49483        1.75485       -6.35317
O         -0.13029        1.45062       -6.04893
C          1.24473        4.42467       -1.28431
C          2.54744        4.98887       -0.73907
H          0.26922       -0.43000       -0.56797
H          0.74163       -0.06599        1.09903
H          1.98553       -0.38757       -0.11902
H          0.07195        1.99796       -0.04799
H          1.78824        2.05095        0.39827
H          2.13329       -0.82587       -4.12046
H          2.64399        2.02010       -6.43995
H          2.71020        0.94121       -7.79257
H          0.31696        0.61473       -7.87397
H          0.99791        3.58323       -7.36422
H          1.15909        2.74418       -8.90702
H         -1.18922        2.43370       -8.94918
H         -1.25970        3.90704       -6.40539
H         -2.65886        3.31425       -7.30414
H         -2.04575        1.78477       -5.40778
H         -1.91787        0.94551       -6.96004
H          0.74596        5.19378       -1.88736
H          0.55852        4.19951       -0.46204
H          3.22285        5.28159       -1.55043
H          2.34914        5.87540       -0.12847
H          3.06991        4.25569       -0.11595

--Link1--
%chk=JID_10191.chk
%mem=8GB
%nprocshared=4
# B3LYP/6-311++G(d,p) empiricaldispersion=gd3bj scf=xqc pop=npa geom=check

CID_114387660_JID_10191_Energie_neutraal

0 1

--Link1--
%chk=JID_10191.chk
%mem=8GB
%nprocshared=4
# B3LYP/6-311++G(d,p) empiricaldispersion=gd3bj scf=xqc pop=npa geom=check

CID_114387660_JID_10191_Energie_kation

1 2

--Link1--
%chk=JID_10191.chk
%mem=8GB
%nprocshared=4
# B3LYP/6-311++G(d,p) empiricaldispersion=gd3bj scf=xqc pop=npa geom=check

CID_114387660_JID_10191_Energie_anion

-1 2
