%chk=JID_8282.chk
%mem=8GB
%nprocshared=4
# opt freq B3LYP/6-31G(d) empiricaldispersion=gd3bj scf=xqc

CID_123874967_JID_8282_neutraal

0 1
C          1.03998        0.07207        0.05664
C          1.08171       -1.35467        0.58189
C          1.34590       -1.44332        2.08679
C          0.30295       -0.76637        2.98199
C         -1.13335       -1.27632        2.82589
C         -1.33499       -2.77381        3.08111
C         -0.88985       -3.27628        4.45859
C         -1.54487       -2.58447        5.65846
C         -3.07336       -2.66718        5.71558
C         -3.66385       -4.08049        5.73294
C         -3.21242       -4.99777        6.87899
C         -3.68467       -4.58017        8.26612
C         -4.83784       -5.01392        8.83557
C         -5.33007       -4.60476       10.19750
C         -5.76099       -5.92312        8.10845
O         -6.08023       -5.87865        6.93601
O         -6.24769       -6.87217        8.92766
C         -2.69851       -3.71353        9.01645
H          0.18368        0.62210        0.45770
H          0.94914        0.06788       -1.03434
H          1.95416        0.61422        0.31811
H          0.14812       -1.86699        0.32567
H          1.88245       -1.89303        0.06037
H          1.43578       -2.49998        2.36452
H          2.32386       -0.99313        2.29973
H          0.61779       -0.88048        4.02608
H          0.30924        0.31376        2.79260
H         -1.77856       -0.70348        3.50263
H         -1.49293       -1.04553        1.81601
H         -2.39582       -3.00961        2.93459
H         -0.79982       -3.34718        2.31472
H         -1.08024       -4.35482        4.51239
H          0.19751       -3.16755        4.54926
H         -1.12050       -3.01106        6.57401
H         -1.25606       -1.52683        5.67050
H         -3.42352       -2.11629        6.59538
H         -3.49405       -2.13136        4.85602
H         -4.75618       -3.98550        5.75028
H         -3.42624       -4.57681        4.78425
H         -3.56359       -6.01433        6.66199
H         -2.12044       -5.09765        6.87315
H         -6.42480       -4.55592       10.22169
H         -5.00065       -5.32349       10.95450
H         -4.98180       -3.60774       10.48328
H         -6.82222       -7.40525        8.34041
H         -1.67324       -4.05887        8.84505
H         -2.77185       -2.67214        8.69351
H         -2.84238       -3.74276       10.10011

--Link1--
%chk=JID_8282.chk
%mem=8GB
%nprocshared=4
# B3LYP/6-311++G(d,p) empiricaldispersion=gd3bj scf=xqc pop=npa geom=check

CID_123874967_JID_8282_Energie_neutraal

0 1

--Link1--
%chk=JID_8282.chk
%mem=8GB
%nprocshared=4
# B3LYP/6-311++G(d,p) empiricaldispersion=gd3bj scf=xqc pop=npa geom=check

CID_123874967_JID_8282_Energie_kation

1 2

--Link1--
%chk=JID_8282.chk
%mem=8GB
%nprocshared=4
# B3LYP/6-311++G(d,p) empiricaldispersion=gd3bj scf=xqc pop=npa geom=check

CID_123874967_JID_8282_Energie_anion

-1 2
