%chk=JID_4897.chk
%mem=8GB
%nprocshared=4
# opt freq B3LYP/6-31G(d) empiricaldispersion=gd3bj scf=xqc

CID_150869482_JID_4897_neutraal

0 1
C          0.92792       -0.04555       -0.05225
N          0.28474        1.22594        0.23320
C          0.40453        2.32953       -0.57115
C          0.35760        3.44741        0.15120
O          0.22708        3.18451        1.51878
N          0.26258        1.70282        1.57246
C          0.47622        4.86706       -0.27358
S          2.01531        5.19406       -1.19763
C          3.17627        5.24554        0.15542
C          3.65825        4.06819        0.73505
C          4.57331        4.12445        1.78814
C          5.01957        5.35777        2.25937
C          4.55350        6.53524        1.67658
C          3.63623        6.47948        0.62475
H          0.71968       -0.36040       -1.08044
H          0.55037       -0.82424        0.61887
H          2.01324        0.02969        0.07655
H          0.55747        2.22442       -1.63559
H         -0.66248        1.52296        1.97087
H         -0.36796        5.11951       -0.92421
H          0.42226        5.54120        0.58819
H          3.32498        3.09668        0.37765
H          4.93616        3.20406        2.23826
H          5.73315        5.40047        3.07814
H          4.90578        7.49746        2.03882
H          3.28623        7.40559        0.17565

--Link1--
%chk=JID_4897.chk
%mem=8GB
%nprocshared=4
# B3LYP/6-311++G(d,p) empiricaldispersion=gd3bj scf=xqc pop=npa geom=check

CID_150869482_JID_4897_Energie_neutraal

0 1

--Link1--
%chk=JID_4897.chk
%mem=8GB
%nprocshared=4
# B3LYP/6-311++G(d,p) empiricaldispersion=gd3bj scf=xqc pop=npa geom=check

CID_150869482_JID_4897_Energie_kation

1 2

--Link1--
%chk=JID_4897.chk
%mem=8GB
%nprocshared=4
# B3LYP/6-311++G(d,p) empiricaldispersion=gd3bj scf=xqc pop=npa geom=check

CID_150869482_JID_4897_Energie_anion

-1 2
