%chk=JID_10309.chk
%mem=8GB
%nprocshared=4
# opt freq B3LYP/6-31G(d) empiricaldispersion=gd3bj scf=xqc

CID_84714453_JID_10309_neutraal

0 1
C          1.19000        0.02200       -1.47900
C          0.90907       -0.07112        0.03750
C          0.30344        1.26751        0.52597
N         -1.04670        1.45408        0.01363
C         -2.00208        0.41865        0.37633
C         -1.51357       -0.94495       -0.10661
C         -0.08372       -1.23238        0.40073
N          0.41996       -2.52748       -0.08811
C         -0.20562       -3.67586        0.55020
C         -1.31298        2.47928       -0.87751
O         -0.47430        3.29260       -1.24846
O         -2.60139        2.47040       -1.30823
C         -2.95611        3.50214       -2.23500
C         -3.54946        4.67543       -1.49917
C         -4.88279        4.64658       -1.06749
C         -5.42483        5.72976       -0.37354
C         -4.63786        6.84662       -0.09746
C         -3.30706        6.87964       -0.50959
C         -2.76374        5.79787       -1.20376
C          2.25806       -0.27884        0.75870
H          0.27384        0.13953       -2.06531
H          1.83239        0.88173       -1.70333
H          1.70798       -0.86941       -1.84885
H          0.23246        1.27912        1.62132
H          0.94732        2.10845        0.24432
H         -2.99672        0.61861       -0.03145
H         -2.09437        0.42423        1.46899
H         -1.54331       -0.97857       -1.20258
H         -2.21311       -1.70800        0.25248
H         -0.12554       -1.27723        1.49891
H          0.29930       -2.59103       -1.09882
H         -1.26743       -3.75860        0.30197
H          0.28493       -4.59089        0.20330
H         -0.09160       -3.63864        1.63824
H         -2.11529        3.80360       -2.87201
H         -3.70632        3.08359       -2.91642
H         -5.50409        3.77663       -1.26746
H         -6.46007        5.70063       -0.04429
H         -5.05917        7.68870        0.44496
H         -2.68856        7.74493       -0.28619
H         -1.71832        5.82942       -1.50692
H          2.93618        0.56237        0.57435
H          2.11877       -0.35975        1.84256
H          2.76427       -1.18834        0.41766

--Link1--
%chk=JID_10309.chk
%mem=8GB
%nprocshared=4
# B3LYP/6-311++G(d,p) empiricaldispersion=gd3bj scf=xqc pop=npa geom=check

CID_84714453_JID_10309_Energie_neutraal

0 1

--Link1--
%chk=JID_10309.chk
%mem=8GB
%nprocshared=4
# B3LYP/6-311++G(d,p) empiricaldispersion=gd3bj scf=xqc pop=npa geom=check

CID_84714453_JID_10309_Energie_kation

1 2

--Link1--
%chk=JID_10309.chk
%mem=8GB
%nprocshared=4
# B3LYP/6-311++G(d,p) empiricaldispersion=gd3bj scf=xqc pop=npa geom=check

CID_84714453_JID_10309_Energie_anion

-1 2
