%chk=JID_10236.chk
%mem=8GB
%nprocshared=4
# opt freq B3LYP/6-31G(d) empiricaldispersion=gd3bj scf=xqc

CID_114614748_JID_10236_neutraal

0 1
C          0.96039       -0.09069       -0.01435
C          0.63641       -1.04004       -1.16631
C          0.89640       -2.54057       -0.90522
C          0.29307       -3.10030        0.37149
C          1.40082       -2.98990        1.40144
O          2.62691       -2.76309        0.69873
C          2.37156       -2.84973       -0.70598
N         -0.78231       -0.84508       -1.51289
S         -1.28817       -0.82760       -3.10685
O         -0.49550       -1.78054       -3.84883
O         -2.73184       -0.89791       -3.07247
C         -0.85518        0.79570       -3.62154
C          0.22232        0.98389       -4.46678
N          0.60440        2.20338       -4.91496
C         -0.13165        3.27062       -4.51204
C         -1.24392        3.16276       -3.67939
C         -1.61244        1.89741       -3.22632
C          0.28822        4.60574       -5.02643
S          1.87232        5.13204       -5.12433
N         -0.71176        5.45558       -5.44493
H          0.32919       -0.27719        0.86036
H          0.78043        0.94748       -0.31780
H          2.00959       -0.16537        0.28534
H          1.25434       -0.72745       -2.01747
H          0.52419       -3.10155       -1.77074
H          0.05667       -4.16166        0.22224
H         -0.63220       -2.61614        0.69577
H          1.23989       -2.15186        2.08592
H          1.49159       -3.90184        1.99971
H          2.59706       -3.87602       -1.01831
H          3.04298       -2.17553       -1.24568
H         -1.50863       -1.07247       -0.83544
H          0.83226        0.15671       -4.82183
H         -1.80192        4.04051       -3.37122
H         -2.47474        1.77574       -2.57531
H         -1.67042        5.15702       -5.57428
H         -0.43629        6.32904       -5.88153

--Link1--
%chk=JID_10236.chk
%mem=8GB
%nprocshared=4
# B3LYP/6-311++G(d,p) empiricaldispersion=gd3bj scf=xqc pop=npa geom=check

CID_114614748_JID_10236_Energie_neutraal

0 1

--Link1--
%chk=JID_10236.chk
%mem=8GB
%nprocshared=4
# B3LYP/6-311++G(d,p) empiricaldispersion=gd3bj scf=xqc pop=npa geom=check

CID_114614748_JID_10236_Energie_kation

1 2

--Link1--
%chk=JID_10236.chk
%mem=8GB
%nprocshared=4
# B3LYP/6-311++G(d,p) empiricaldispersion=gd3bj scf=xqc pop=npa geom=check

CID_114614748_JID_10236_Energie_anion

-1 2
