%chk=JID_10466.chk
%mem=8GB
%nprocshared=4
# opt freq B3LYP/6-31G(d) empiricaldispersion=gd3bj scf=xqc

CID_132308364_JID_10466_neutraal

0 1
C          0.92670        0.04467        0.05129
C          0.39098        0.61524       -1.26370
C          1.25735        0.23968       -2.46159
O         -1.00094        0.37870       -1.54048
C         -1.56990       -0.76320       -1.06949
C         -2.70132       -0.64256       -0.27007
N         -3.37976       -1.69141        0.25516
C         -2.90925       -2.92366       -0.05487
C         -1.79476       -3.14530       -0.85354
C         -1.13438       -2.04030       -1.39726
C         -1.32206       -4.50557       -1.17218
O         -0.72529       -4.73207       -2.21935
N         -1.70031       -5.54184       -0.34933
C         -0.92472       -5.95689        0.86169
C         -0.84800       -4.89116        1.98428
C          0.18591       -3.77527        1.79564
C          1.38523       -4.15746        0.98940
C          1.53287       -5.34919        0.39869
C          0.50414       -6.43724        0.47359
C         -1.69944       -7.16896        1.43314
H          1.02496       -1.04389        0.01598
H          0.26210        0.29237        0.88545
H          1.91912        0.45316        0.26948
H          0.45663        1.70673       -1.16789
H          1.32402       -0.84272       -2.59595
H          0.83723        0.65282       -3.38467
H          2.27587        0.62256       -2.34007
H         -3.09861        0.33693       -0.01832
H         -3.48075       -3.74589        0.36594
H         -0.29372       -2.19673       -2.06310
H         -1.73517       -6.34783       -0.96571
H         -1.83395       -4.45069        2.17341
H         -0.57622       -5.40259        2.91958
H          0.52171       -3.43979        2.78493
H         -0.27970       -2.89970        1.33854
H          2.17255       -3.41353        0.88974
H          2.43952       -5.56165       -0.16309
H          0.86957       -7.16894        1.20601
H          0.47066       -6.95669       -0.49251
H         -2.72363       -6.88658        1.70445
H         -1.76770       -7.97882        0.69711
H         -1.21428       -7.57461        2.32803

--Link1--
%chk=JID_10466.chk
%mem=8GB
%nprocshared=4
# B3LYP/6-311++G(d,p) empiricaldispersion=gd3bj scf=xqc pop=npa geom=check

CID_132308364_JID_10466_Energie_neutraal

0 1

--Link1--
%chk=JID_10466.chk
%mem=8GB
%nprocshared=4
# B3LYP/6-311++G(d,p) empiricaldispersion=gd3bj scf=xqc pop=npa geom=check

CID_132308364_JID_10466_Energie_kation

1 2

--Link1--
%chk=JID_10466.chk
%mem=8GB
%nprocshared=4
# B3LYP/6-311++G(d,p) empiricaldispersion=gd3bj scf=xqc pop=npa geom=check

CID_132308364_JID_10466_Energie_anion

-1 2
