%chk=JID_10013.chk
%mem=8GB
%nprocshared=4
# opt freq B3LYP/6-31G(d) empiricaldispersion=gd3bj scf=xqc

CID_127287293_JID_10013_neutraal

0 1
C          0.93662       -0.06181       -0.04650
N         -0.46244        0.17015        0.28562
C         -0.83093        1.59558        0.24861
C         -1.09539        2.13530       -1.16541
O         -2.08729        1.36385       -1.85676
C         -1.74679       -0.03652       -1.93800
C         -1.40997       -0.60154       -0.53581
C         -0.69446       -0.27096       -3.03483
N         -0.37460       -1.67337       -3.27338
C          0.53839       -2.04365       -4.22246
O          1.36483       -2.90683       -3.94331
N          0.49784       -1.35513       -5.42007
C         -0.75885       -1.43321       -6.16837
C         -0.79091       -0.40716       -7.29287
O          0.29336       -0.61547       -8.20224
C          1.57037       -0.59347       -7.56629
C          1.69162       -1.43989       -6.27556
C          2.92883       -0.80608       -5.62565
C          2.72828        0.69036       -5.83819
C          2.04393        0.81978       -7.19678
H          1.16109       -1.13391       -0.06296
H          1.57695        0.37608        0.72769
H          1.24141        0.37008       -1.00120
H         -1.75194        1.70803        0.83522
H         -0.07279        2.20681        0.75234
H         -0.17745        2.17722       -1.76043
H         -1.47628        3.15966       -1.09564
H         -2.66452       -0.53966       -2.26887
H         -1.10647       -1.65283       -0.59048
H         -2.35140       -0.61288        0.03162
H         -1.05961        0.18263       -3.96254
H          0.24389        0.24975       -2.83081
H         -0.18102       -2.22237       -2.44456
H         -0.81800       -2.44840       -6.58196
H         -1.62192       -1.30602       -5.50886
H         -0.75690        0.61404       -6.89922
H         -1.72004       -0.50915       -7.86236
H          2.28135       -0.99376       -8.30097
H          1.85628       -2.49753       -6.51418
H          3.05783       -1.04372       -4.56636
H          3.83285       -1.13272       -6.15450
H          3.67260        1.24152       -5.79723
H          2.07399        1.09473       -5.05644
H          2.76030        1.17275       -7.94819
H          1.23901        1.55980       -7.16587

--Link1--
%chk=JID_10013.chk
%mem=8GB
%nprocshared=4
# B3LYP/6-311++G(d,p) empiricaldispersion=gd3bj scf=xqc pop=npa geom=check

CID_127287293_JID_10013_Energie_neutraal

0 1

--Link1--
%chk=JID_10013.chk
%mem=8GB
%nprocshared=4
# B3LYP/6-311++G(d,p) empiricaldispersion=gd3bj scf=xqc pop=npa geom=check

CID_127287293_JID_10013_Energie_kation

1 2

--Link1--
%chk=JID_10013.chk
%mem=8GB
%nprocshared=4
# B3LYP/6-311++G(d,p) empiricaldispersion=gd3bj scf=xqc pop=npa geom=check

CID_127287293_JID_10013_Energie_anion

-1 2
