%chk=JID_4232.chk
%mem=8GB
%nprocshared=4
# opt freq B3LYP/6-31G(d) empiricaldispersion=gd3bj scf=xqc

CID_64292554_JID_4232_neutraal

0 1
C          1.04438        0.05697        0.06917
C          0.49668       -1.26032        0.59787
N          0.80466       -1.37066        2.01910
C          0.30325       -2.59684        2.63751
C          0.86573       -3.91988        2.09633
C          2.39711       -4.01758        2.12936
C          2.94257       -5.11460        3.05101
C          2.57427       -6.55288        2.67131
C          3.06426       -7.00744        1.29736
O          4.48086       -7.15617        1.28497
C          5.19168       -6.14563        0.57092
C          5.37308       -6.48572       -0.91306
C          4.15945       -6.20205       -1.75662
C          4.03206       -5.14054       -2.56334
H          0.60130        0.91021        0.59402
H          0.81316        0.16045       -0.99595
H          2.13251        0.11030        0.18345
H         -0.58684       -1.28973        0.43850
H          0.95112       -2.07663        0.02708
H          1.80849       -1.28317        2.16479
H          0.52655       -2.54090        3.70972
H         -0.79093       -2.61739        2.56174
H          0.41005       -4.73125        2.67431
H          0.52306       -4.06560        1.06438
H          2.75530       -4.17403        1.10661
H          2.84494       -3.07308        2.45471
H          4.03483       -5.02447        3.09082
H          2.58609       -4.92198        4.07076
H          3.00572       -7.21424        3.43345
H          1.48806       -6.68245        2.72053
H          2.65000       -8.00282        1.10195
H          2.69772       -6.35031        0.50536
H          4.74617       -5.15713        0.71519
H          6.18767       -6.10862        1.02677
H          6.22108       -5.90654       -1.29933
H          5.62920       -7.54560       -1.02638
H          3.35161       -6.92921       -1.70961
H          3.13266       -4.99789       -3.15489
H          4.81360       -4.39245       -2.65283

--Link1--
%chk=JID_4232.chk
%mem=8GB
%nprocshared=4
# B3LYP/6-311++G(d,p) empiricaldispersion=gd3bj scf=xqc pop=npa geom=check

CID_64292554_JID_4232_Energie_neutraal

0 1

--Link1--
%chk=JID_4232.chk
%mem=8GB
%nprocshared=4
# B3LYP/6-311++G(d,p) empiricaldispersion=gd3bj scf=xqc pop=npa geom=check

CID_64292554_JID_4232_Energie_kation

1 2

--Link1--
%chk=JID_4232.chk
%mem=8GB
%nprocshared=4
# B3LYP/6-311++G(d,p) empiricaldispersion=gd3bj scf=xqc pop=npa geom=check

CID_64292554_JID_4232_Energie_anion

-1 2
