%chk=JID_9053.chk
%mem=8GB
%nprocshared=4
# opt freq B3LYP/6-31G(d) empiricaldispersion=gd3bj scf=xqc

CID_103546078_JID_9053_neutraal

0 1
C          0.94804       -0.06867       -0.05084
C          0.53024       -1.30337       -0.76523
N          0.86239       -2.52080       -0.39223
C          0.15855       -3.39289       -1.20418
C         -0.64273       -2.66345       -2.07412
N         -0.29505       -1.34155       -1.87297
C         -0.81967       -0.19561       -2.58471
C         -0.17724        0.25776       -3.93245
C         -0.16346       -0.82010       -5.00982
C          1.15167       -1.54608       -4.79483
O          2.01820       -0.66790       -4.06486
C          1.31712        0.55039       -3.79666
O         -0.93675        1.43666       -4.27289
C         -0.79149        1.98972       -5.57152
N         -1.56660       -3.04747       -2.98851
C          0.26190       -4.84861       -1.06344
O          0.99713       -5.41056       -0.25766
O         -0.55793       -5.53026       -1.93076
C         -0.44753       -6.94940       -1.82844
H          0.07908        0.43450        0.38424
H          1.46700        0.62851       -0.70937
H          1.63196       -0.31849        0.76704
H         -1.89066       -0.37804       -2.74536
H         -0.80641        0.65468       -1.89015
H         -0.14007       -0.39086       -6.01661
H         -1.03374       -1.47941       -5.00166
H          1.03889       -2.47166       -4.22720
H          1.62790       -1.80289       -5.74655
H          1.66971        1.29110       -4.52008
H          1.60063        0.93210       -2.81521
H          0.25289        2.07842       -5.87699
H         -1.35292        1.39721       -6.29904
H         -1.22767        2.99279       -5.55920
H         -1.84265       -4.03222       -2.98619
H         -2.35247       -2.44671       -3.22336
H          0.57404       -7.27386       -2.05061
H         -0.75721       -7.28821       -0.83493
H         -1.11788       -7.39446       -2.56904

--Link1--
%chk=JID_9053.chk
%mem=8GB
%nprocshared=4
# B3LYP/6-311++G(d,p) empiricaldispersion=gd3bj scf=xqc pop=npa geom=check

CID_103546078_JID_9053_Energie_neutraal

0 1

--Link1--
%chk=JID_9053.chk
%mem=8GB
%nprocshared=4
# B3LYP/6-311++G(d,p) empiricaldispersion=gd3bj scf=xqc pop=npa geom=check

CID_103546078_JID_9053_Energie_kation

1 2

--Link1--
%chk=JID_9053.chk
%mem=8GB
%nprocshared=4
# B3LYP/6-311++G(d,p) empiricaldispersion=gd3bj scf=xqc pop=npa geom=check

CID_103546078_JID_9053_Energie_anion

-1 2
