%chk=JID_239.chk
%mem=8GB
%nprocshared=4
# opt freq B3LYP/6-31G(d) empiricaldispersion=gd3bj scf=xqc

CID_12339564_JID_239_neutraal

0 1
C          1.05897       -0.02913       -0.07533
C          0.37573        1.24112       -0.55695
C          0.76235        1.63582       -1.98567
C          0.29964        0.66418       -3.07740
C         -1.19135        0.59008       -3.22696
C         -2.00860       -0.48704       -2.91272
S         -3.63573       -0.06820       -3.25204
N         -3.31345        1.45231       -3.81708
C         -2.00277        1.65402       -3.74602
C         -1.67914       -1.82499       -2.35396
H          0.74436       -0.90198       -0.65319
H          0.80636       -0.21656        0.97326
H          2.14750        0.05888       -0.14973
H         -0.71053        1.13121       -0.46784
H          0.66137        2.06016        0.11437
H          0.35558        2.63439       -2.18959
H          1.85395        1.73113       -2.04392
H          0.71807        0.99919       -4.03581
H          0.72343       -0.33014       -2.90267
H         -1.63780        2.61636       -4.08302
H         -0.72486       -2.18877       -2.74744
H         -1.60293       -1.77016       -1.26340
H         -2.43910       -2.57226       -2.60562

--Link1--
%chk=JID_239.chk
%mem=8GB
%nprocshared=4
# B3LYP/6-311++G(d,p) empiricaldispersion=gd3bj scf=xqc pop=npa geom=check

CID_12339564_JID_239_Energie_neutraal

0 1

--Link1--
%chk=JID_239.chk
%mem=8GB
%nprocshared=4
# B3LYP/6-311++G(d,p) empiricaldispersion=gd3bj scf=xqc pop=npa geom=check

CID_12339564_JID_239_Energie_kation

1 2

--Link1--
%chk=JID_239.chk
%mem=8GB
%nprocshared=4
# B3LYP/6-311++G(d,p) empiricaldispersion=gd3bj scf=xqc pop=npa geom=check

CID_12339564_JID_239_Energie_anion

-1 2
