%chk=JID_3230.chk
%mem=8GB
%nprocshared=4
# opt freq B3LYP/6-31G(d) empiricaldispersion=gd3bj scf=xqc

CID_117216663_JID_3230_neutraal

0 1
C          1.04095        0.08622        0.02981
C          0.47065        1.28699       -0.70196
O          0.80671        1.30312       -2.08674
C          2.19133        1.49410       -2.39157
C          2.72037        2.81663       -1.95725
C          2.36122        4.08501       -2.40777
N          3.10852        4.95456       -1.64754
N          3.92762        4.34013       -0.76896
C          3.69038        3.04561       -0.96082
C          3.14035        6.39844       -1.71075
C          1.42132        4.40862       -3.44412
O          0.97264        3.67007       -4.30666
O          1.02324        5.69611       -3.40078
H          0.81866       -0.83951       -0.51042
H          0.62233        0.01756        1.03830
H          2.12877        0.15577        0.12326
H         -0.62248        1.23942       -0.65078
H          0.76611        2.22292       -0.21697
H          2.78050        0.67153       -1.97193
H          2.29243        1.40836       -3.47953
H          4.22556        2.32074       -0.35997
H          2.19097        6.78180       -1.32975
H          3.95947        6.77116       -1.08903
H          3.31050        6.70316       -2.74591
H          0.37391        5.73483       -4.13468

--Link1--
%chk=JID_3230.chk
%mem=8GB
%nprocshared=4
# B3LYP/6-311++G(d,p) empiricaldispersion=gd3bj scf=xqc pop=npa geom=check

CID_117216663_JID_3230_Energie_neutraal

0 1

--Link1--
%chk=JID_3230.chk
%mem=8GB
%nprocshared=4
# B3LYP/6-311++G(d,p) empiricaldispersion=gd3bj scf=xqc pop=npa geom=check

CID_117216663_JID_3230_Energie_kation

1 2

--Link1--
%chk=JID_3230.chk
%mem=8GB
%nprocshared=4
# B3LYP/6-311++G(d,p) empiricaldispersion=gd3bj scf=xqc pop=npa geom=check

CID_117216663_JID_3230_Energie_anion

-1 2
