%chk=JID_10215.chk
%mem=8GB
%nprocshared=4
# opt freq B3LYP/6-31G(d) empiricaldispersion=gd3bj scf=xqc

CID_63208824_JID_10215_neutraal

0 1
C          0.95414       -0.03995        0.07938
C          0.46278       -1.33024        0.71427
N          0.58642       -1.26871        2.16503
C         -0.47849       -0.88420        2.97972
C         -1.57964       -0.14558        2.52722
C         -2.58849        0.26907        3.40514
C         -2.49982       -0.04468        4.76025
C         -1.38042       -0.71834        5.24867
C         -0.37980       -1.12592        4.36067
C         -3.56046        0.41793        5.68181
O         -3.80910        1.62178        5.69894
N         -4.20993       -0.52143        6.48056
C         -4.10328       -1.96314        6.30266
C         -5.01223       -0.04191        7.60956
C         -4.51554       -0.52799        8.99192
N         -3.08788       -0.30109        9.25803
C         -2.68308       -0.81554       10.56666
C         -1.31882       -0.17835       10.77254
C         -1.36259        1.11644        9.96905
C         -2.72086        1.11715        9.28078
H          0.35825        0.82117        0.39642
H          0.89857       -0.10890       -1.01147
H          1.99541        0.15837        0.35544
H         -0.55722       -1.57025        0.39372
H          1.09506       -2.15053        0.35405
H          1.11396       -2.04586        2.55403
H         -1.67492        0.13310        1.48258
H         -3.43236        0.84442        3.03280
H         -1.27441       -0.90763        6.31418
H          0.49483       -1.63267        4.76187
H         -3.36336       -2.35765        7.00426
H         -5.07630       -2.42255        6.50132
H         -3.81087       -2.22036        5.28194
H         -5.05438        1.05261        7.61041
H         -6.03843       -0.39419        7.45037
H         -5.13666       -0.05887        9.76629
H         -4.70500       -1.60725        9.05512
H         -2.62283       -1.90831       10.58055
H         -3.36860       -0.49194       11.36041
H         -1.11324        0.00567       11.83177
H         -0.52558       -0.82810       10.38402
H         -1.24254        1.99434       10.61215
H         -0.55030        1.12486        9.23301
H         -3.43302        1.70851        9.87038
H         -2.65156        1.55223        8.28027

--Link1--
%chk=JID_10215.chk
%mem=8GB
%nprocshared=4
# B3LYP/6-311++G(d,p) empiricaldispersion=gd3bj scf=xqc pop=npa geom=check

CID_63208824_JID_10215_Energie_neutraal

0 1

--Link1--
%chk=JID_10215.chk
%mem=8GB
%nprocshared=4
# B3LYP/6-311++G(d,p) empiricaldispersion=gd3bj scf=xqc pop=npa geom=check

CID_63208824_JID_10215_Energie_kation

1 2

--Link1--
%chk=JID_10215.chk
%mem=8GB
%nprocshared=4
# B3LYP/6-311++G(d,p) empiricaldispersion=gd3bj scf=xqc pop=npa geom=check

CID_63208824_JID_10215_Energie_anion

-1 2
