%chk=JID_8747.chk
%mem=8GB
%nprocshared=4
# opt freq B3LYP/6-31G(d) empiricaldispersion=gd3bj scf=xqc

CID_10777207_JID_8747_neutraal

0 1
C          1.03182       -0.05426        0.07773
C          0.59159        1.26648        0.64292
C         -0.53082        1.46868        1.35568
C         -0.80906        2.82408        1.87406
O         -1.80338        3.07069        2.54525
O          0.10648        3.77500        1.62065
C          1.03340        3.60802        0.53835
O          1.48419        2.26357        0.34264
C          0.33061        4.06188       -0.75365
C          2.30374        4.47785        0.88096
C          2.94961        3.95830        2.18927
C          3.37372        4.39534       -0.22834
C          1.94341        5.96256        1.10056
C         -1.55358        0.40408        1.68434
C         -1.15833       -0.51305        2.85265
C         -1.10005        0.15231        4.23188
C         -2.44935        0.56631        4.74465
C         -3.07351       -0.01745        5.77553
H          1.13900        0.02422       -1.00943
H          0.34026       -0.87478        0.27959
H          2.00454       -0.33201        0.49739
H         -0.03680        5.08956       -0.68065
H          0.97976        3.96478       -1.62869
H         -0.54884        3.43901       -0.95609
H          3.27000        2.91518        2.09365
H          3.83556        4.54769        2.45316
H          2.25450        4.02018        3.03361
H          3.01727        4.82949       -1.16775
H          4.27675        4.94831        0.05637
H          3.67466        3.36094       -0.42518
H          1.56062        6.42609        0.18590
H          1.18871        6.08498        1.88460
H          2.82514        6.53883        1.40518
H         -2.53871        0.84735        1.87027
H         -1.71172       -0.21967        0.79485
H         -1.86894       -1.34925        2.88911
H         -0.17738       -0.95979        2.64873
H         -0.64257       -0.55791        4.93275
H         -0.43847        1.02528        4.21449
H         -2.92734        1.41342        4.25451
H         -4.04308        0.34054        6.10835
H         -2.63677       -0.85499        6.30977

--Link1--
%chk=JID_8747.chk
%mem=8GB
%nprocshared=4
# B3LYP/6-311++G(d,p) empiricaldispersion=gd3bj scf=xqc pop=npa geom=check

CID_10777207_JID_8747_Energie_neutraal

0 1

--Link1--
%chk=JID_8747.chk
%mem=8GB
%nprocshared=4
# B3LYP/6-311++G(d,p) empiricaldispersion=gd3bj scf=xqc pop=npa geom=check

CID_10777207_JID_8747_Energie_kation

1 2

--Link1--
%chk=JID_8747.chk
%mem=8GB
%nprocshared=4
# B3LYP/6-311++G(d,p) empiricaldispersion=gd3bj scf=xqc pop=npa geom=check

CID_10777207_JID_8747_Energie_anion

-1 2
