%chk=JID_6580.chk
%mem=8GB
%nprocshared=4
# opt freq B3LYP/6-31G(d) empiricaldispersion=gd3bj scf=xqc

CID_115659602_JID_6580_neutraal

0 1
C          0.94567        0.08001       -0.02542
C          0.53241       -0.74234       -1.24187
C          1.09051       -2.17900       -1.23154
O          0.58751       -3.02045       -0.20543
S         -1.26909       -0.65577       -1.64538
C         -2.09115       -0.69025       -0.02843
C         -1.89704       -1.98040        0.73293
O         -1.10384       -2.02580        1.68151
N         -2.59586       -3.11333        0.45400
C         -3.40258       -3.51887       -0.70870
C         -4.54166       -2.55087       -1.06349
C         -5.64538       -3.39806       -1.70220
C         -5.36690       -4.84240       -1.30430
C         -4.21080       -4.77601       -0.31403
C         -2.56136       -3.83690       -1.89379
N         -1.94771       -4.12550       -2.83700
H          0.59072       -0.33845        0.91776
H          0.58401        1.11110       -0.10348
H          2.03879        0.12655        0.04029
H          1.00286       -0.25547       -2.10594
H          0.88777       -2.67030       -2.18961
H          2.18026       -2.14707       -1.12003
H          0.60189       -2.54251        0.64580
H         -1.73456        0.14365        0.58467
H         -3.15831       -0.50440       -0.16356
H         -2.21121       -3.88187        0.99348
H         -4.94284       -2.08262       -0.15519
H         -4.24053       -1.74829       -1.74396
H         -5.63069       -3.29811       -2.79343
H         -6.63255       -3.07025       -1.35941
H         -5.08029       -5.42454       -2.18793
H         -6.24660       -5.32491       -0.86695
H         -3.61450       -5.69571       -0.32509
H         -4.61727       -4.66642        0.70084

--Link1--
%chk=JID_6580.chk
%mem=8GB
%nprocshared=4
# B3LYP/6-311++G(d,p) empiricaldispersion=gd3bj scf=xqc pop=npa geom=check

CID_115659602_JID_6580_Energie_neutraal

0 1

--Link1--
%chk=JID_6580.chk
%mem=8GB
%nprocshared=4
# B3LYP/6-311++G(d,p) empiricaldispersion=gd3bj scf=xqc pop=npa geom=check

CID_115659602_JID_6580_Energie_kation

1 2

--Link1--
%chk=JID_6580.chk
%mem=8GB
%nprocshared=4
# B3LYP/6-311++G(d,p) empiricaldispersion=gd3bj scf=xqc pop=npa geom=check

CID_115659602_JID_6580_Energie_anion

-1 2
