%chk=JID_1290.chk
%mem=8GB
%nprocshared=4
# opt freq B3LYP/6-31G(d) empiricaldispersion=gd3bj scf=xqc

CID_79197205_JID_1290_neutraal

0 1
C          1.01284        0.01852        0.09743
C          0.49276        0.87138       -1.02872
C         -0.31260        0.32438       -1.95907
C          0.93185        2.34005       -1.13158
C          0.23271        3.31140       -0.07112
C          0.71381        3.05941        1.36797
C          0.54375        4.77853       -0.44892
O         -1.19380        3.10949       -0.21438
C         -2.04430        3.70195        0.75353
N          2.41234        2.43540       -1.14224
C          2.98998        1.92113       -2.38100
H          0.96359       -1.04750       -0.15317
H          0.41773        0.16383        1.00176
H          2.05995        0.23853        0.32387
H         -0.69933        0.90773       -2.78900
H         -0.61896       -0.71567       -1.90631
H          0.57943        2.71066       -2.10698
H          1.80477        3.00825        1.43490
H          0.39221        3.86781        2.03561
H          0.28754        2.14493        1.78555
H          0.18762        5.00095       -1.46115
H          0.03737        5.48457        0.21697
H          1.61142        5.00877       -0.39436
H         -1.89339        3.25283        1.73856
H         -1.91283        4.78480        0.80300
H         -3.07810        3.50403        0.45559
H          2.69162        3.40807       -1.05006
H          2.62182        2.47102       -3.25344
H          4.07717        2.04497       -2.34661
H          2.79339        0.85377       -2.51759

--Link1--
%chk=JID_1290.chk
%mem=8GB
%nprocshared=4
# B3LYP/6-311++G(d,p) empiricaldispersion=gd3bj scf=xqc pop=npa geom=check

CID_79197205_JID_1290_Energie_neutraal

0 1

--Link1--
%chk=JID_1290.chk
%mem=8GB
%nprocshared=4
# B3LYP/6-311++G(d,p) empiricaldispersion=gd3bj scf=xqc pop=npa geom=check

CID_79197205_JID_1290_Energie_kation

1 2

--Link1--
%chk=JID_1290.chk
%mem=8GB
%nprocshared=4
# B3LYP/6-311++G(d,p) empiricaldispersion=gd3bj scf=xqc pop=npa geom=check

CID_79197205_JID_1290_Energie_anion

-1 2
