%chk=JID_10428.chk
%mem=8GB
%nprocshared=4
# opt freq B3LYP/6-31G(d) empiricaldispersion=gd3bj scf=xqc

CID_87857862_JID_10428_neutraal

0 1
C          1.34400       -0.22500        0.03600
C          0.72927        1.00628       -0.17081
C         -0.66320        1.09952       -0.15875
C         -1.45128       -0.03562        0.05558
C         -0.83033       -1.26712        0.27052
C          0.56540       -1.35869        0.25797
O         -2.79907        0.20000        0.03077
C         -3.67085       -0.91581        0.10303
C         -3.73782       -1.77191       -1.15014
O         -3.59230       -2.98647       -1.13646
N         -4.06414       -1.23200       -2.43547
C         -4.28596        0.08946       -2.80904
C         -4.74307        0.40553       -4.05440
C         -4.81554        1.79973       -3.95299
N         -4.44961        2.36971       -2.81036
N         -4.09436        1.26349       -2.07679
N         -5.26961        2.43643       -5.06594
C         -5.53428        1.49582       -5.97853
S         -5.24133       -0.25224       -5.59485
N         -6.01608        1.80006       -7.19540
H          2.42906       -0.30013        0.03199
H          1.33399        1.89520       -0.33549
H         -1.12591        2.07197       -0.31227
H         -1.38090       -2.18149        0.46640
H          1.04898       -2.31825        0.43008
H         -3.44777       -1.53889        0.97705
H         -4.68277       -0.52852        0.27028
H         -4.16079       -1.94360       -3.15675
H         -3.71018        1.39888       -1.14473
H         -5.91796        1.13866       -7.95614
H         -5.96512        2.77521       -7.47403

--Link1--
%chk=JID_10428.chk
%mem=8GB
%nprocshared=4
# B3LYP/6-311++G(d,p) empiricaldispersion=gd3bj scf=xqc pop=npa geom=check

CID_87857862_JID_10428_Energie_neutraal

0 1

--Link1--
%chk=JID_10428.chk
%mem=8GB
%nprocshared=4
# B3LYP/6-311++G(d,p) empiricaldispersion=gd3bj scf=xqc pop=npa geom=check

CID_87857862_JID_10428_Energie_kation

1 2

--Link1--
%chk=JID_10428.chk
%mem=8GB
%nprocshared=4
# B3LYP/6-311++G(d,p) empiricaldispersion=gd3bj scf=xqc pop=npa geom=check

CID_87857862_JID_10428_Energie_anion

-1 2
