%chk=JID_5309.chk
%mem=8GB
%nprocshared=4
# opt freq B3LYP/6-31G(d) empiricaldispersion=gd3bj scf=xqc

CID_120242929_JID_5309_neutraal

0 1
C          1.00269       -0.07928        0.06089
C          0.35781       -0.51499        1.15000
C         -0.96744       -1.22331        1.12164
C         -0.86984       -2.72422        1.38111
C         -0.54075       -3.03610        2.82420
O         -1.43158       -3.12954        3.66989
N          0.75455       -3.15524        3.22747
C          1.94716       -3.41112        2.40695
C          3.16837       -2.63693        2.92820
C          3.54769       -2.95977        4.34963
C          4.48017       -4.10066        4.66526
C          4.95257       -2.68231        4.82047
C          2.27312       -4.90603        2.30678
O          3.16164       -5.39990        1.62875
O          1.49405       -5.69610        3.07485
H          0.60170       -0.22389       -0.93779
H          1.95047        0.44366        0.14823
H          0.79306       -0.32973        2.13060
H         -1.62401       -0.75284        1.86387
H         -1.44698       -1.07091        0.14643
H         -1.84675       -3.18270        1.17883
H         -0.17609       -3.21341        0.69295
H          0.80062       -3.49029        4.18349
H          1.74751       -3.08305        1.38456
H          4.02243       -2.81866        2.26303
H          2.95671       -1.56181        2.87763
H          2.75762       -2.72703        5.05564
H          4.29447       -4.67446        5.56657
H          4.90455       -4.68108        3.85311
H          5.68103       -2.31046        4.10845
H          5.08533       -2.29888        5.82628
H          1.82608       -6.60349        2.91144

--Link1--
%chk=JID_5309.chk
%mem=8GB
%nprocshared=4
# B3LYP/6-311++G(d,p) empiricaldispersion=gd3bj scf=xqc pop=npa geom=check

CID_120242929_JID_5309_Energie_neutraal

0 1

--Link1--
%chk=JID_5309.chk
%mem=8GB
%nprocshared=4
# B3LYP/6-311++G(d,p) empiricaldispersion=gd3bj scf=xqc pop=npa geom=check

CID_120242929_JID_5309_Energie_kation

1 2

--Link1--
%chk=JID_5309.chk
%mem=8GB
%nprocshared=4
# B3LYP/6-311++G(d,p) empiricaldispersion=gd3bj scf=xqc pop=npa geom=check

CID_120242929_JID_5309_Energie_anion

-1 2
