%chk=JID_2540.chk
%mem=8GB
%nprocshared=4
# opt freq B3LYP/6-31G(d) empiricaldispersion=gd3bj scf=xqc

CID_91080148_JID_2540_neutraal

0 1
C          1.02576       -0.07916       -0.05541
C          0.66171        1.37312        0.21097
C          1.09130        2.32628       -0.91008
C          0.48467        2.04977       -2.30141
C         -1.04885        2.03412       -2.26026
C          0.94139        3.09495       -3.34685
C          2.46468        3.24243       -3.53857
C          2.78263        4.20439       -4.68984
C          2.82066        3.34713       -5.95732
C          2.88952        1.88741       -5.48863
C          3.18212        1.96937       -3.99024
C          3.91853        1.06394       -6.24694
H          0.46674       -0.48446       -0.90374
H          0.78909       -0.69217        0.82019
H          2.09529       -0.18435       -0.26318
H         -0.41427        1.45648        0.39735
H          1.15715        1.68981        1.13707
H          0.83745        3.34941       -0.60431
H          2.18485        2.28528       -0.97496
H          0.80884        1.06051       -2.64254
H         -1.44395        2.97095       -1.85316
H         -1.46397        1.90038       -3.26522
H         -1.42439        1.20909       -1.64767
H          0.53916        4.07677       -3.06123
H          0.47137        2.85146       -4.30855
H          2.90676        3.62614       -2.61285
H          2.06906        5.03034       -4.77307
H          3.77426        4.64646       -4.52995
H          3.67323        3.63187       -6.58368
H          1.91460        3.50438       -6.55378
H          1.90496        1.42449       -5.63494
H          4.26072        2.08195       -3.81871
H          2.86514        1.06874       -3.45848
H          3.94123        0.03512       -5.87305
H          3.67637        1.03186       -7.31426
H          4.92436        1.48425       -6.14130

--Link1--
%chk=JID_2540.chk
%mem=8GB
%nprocshared=4
# B3LYP/6-311++G(d,p) empiricaldispersion=gd3bj scf=xqc pop=npa geom=check

CID_91080148_JID_2540_Energie_neutraal

0 1

--Link1--
%chk=JID_2540.chk
%mem=8GB
%nprocshared=4
# B3LYP/6-311++G(d,p) empiricaldispersion=gd3bj scf=xqc pop=npa geom=check

CID_91080148_JID_2540_Energie_kation

1 2

--Link1--
%chk=JID_2540.chk
%mem=8GB
%nprocshared=4
# B3LYP/6-311++G(d,p) empiricaldispersion=gd3bj scf=xqc pop=npa geom=check

CID_91080148_JID_2540_Energie_anion

-1 2
