%chk=JID_9542.chk
%mem=8GB
%nprocshared=4
# opt freq B3LYP/6-31G(d) empiricaldispersion=gd3bj scf=xqc

CID_149583328_JID_9542_neutraal

0 1
C          1.05210       -0.07193        0.04595
C          0.30888       -0.45342        1.28738
C         -0.45353        0.31101        2.08535
C         -0.71516        1.72185        1.91151
C         -1.48899        2.52064        2.67949
C         -2.25178        2.05061        3.89797
C         -1.69615        4.01942        2.38588
C         -0.47291        4.93740        2.30271
C          0.84261        4.48976        2.51673
C          1.93151        5.36815        2.46946
C          1.73045        6.72378        2.23806
C          0.43818        7.20411        2.07111
C         -0.64736        6.32395        2.11717
S         -3.00725        4.20222        1.09845
O         -3.49287        5.61792        1.02169
C         -2.17068        3.74059       -0.42018
C         -0.89822        4.45480       -0.73545
O          0.20550        3.93162       -0.78927
O         -1.05028        5.75646       -1.03208
H          0.89681        0.96297       -0.26400
H          0.73501       -0.71519       -0.78117
H          2.12541       -0.22143        0.19944
H          0.41497       -1.50292        1.56238
H         -0.90211       -0.18531        2.94185
H         -0.19997        2.17692        1.06939
H         -1.88995        2.57475        4.78914
H         -3.31926        2.26629        3.77983
H         -2.16592        0.98102        4.09542
H         -2.21258        4.41568        3.27414
H          1.06131        3.44829        2.73543
H          2.93812        4.98738        2.62451
H          2.57637        7.40479        2.20786
H          0.26523        8.26609        1.91546
H         -1.64417        6.74897        2.00705
H         -1.97934        2.66433       -0.40438
H         -2.86560        3.90556       -1.25101
H         -0.13695        6.10049       -1.12127

--Link1--
%chk=JID_9542.chk
%mem=8GB
%nprocshared=4
# B3LYP/6-311++G(d,p) empiricaldispersion=gd3bj scf=xqc pop=npa geom=check

CID_149583328_JID_9542_Energie_neutraal

0 1

--Link1--
%chk=JID_9542.chk
%mem=8GB
%nprocshared=4
# B3LYP/6-311++G(d,p) empiricaldispersion=gd3bj scf=xqc pop=npa geom=check

CID_149583328_JID_9542_Energie_kation

1 2

--Link1--
%chk=JID_9542.chk
%mem=8GB
%nprocshared=4
# B3LYP/6-311++G(d,p) empiricaldispersion=gd3bj scf=xqc pop=npa geom=check

CID_149583328_JID_9542_Energie_anion

-1 2
