%chk=JID_10996.chk
%mem=8GB
%nprocshared=4
# opt freq B3LYP/6-31G(d) empiricaldispersion=gd3bj scf=xqc

CID_44389578_JID_10996_neutraal

0 1
C          1.09293       -0.03693        0.00014
C          0.69701        1.34792       -0.42405
C         -0.47220        1.54479       -1.17517
C         -0.82793        2.83733       -1.51946
C         -0.04135        3.93721       -1.11575
C         -0.66200        5.22755       -1.62108
C         -1.87700        4.71985       -2.34660
C         -2.87976        5.33604       -3.03368
N         -3.87690        4.61678       -3.60389
C         -3.85266        3.28148       -3.45539
N         -2.90972        2.58558       -2.81704
C         -1.95174        3.33940       -2.27433
N         -4.86497        2.56357       -4.05905
C         -2.98952        6.77493       -3.22538
C         -3.93199        7.58265       -3.83427
C         -3.47981        8.91680       -3.69718
C         -2.28916        8.84584       -3.01498
O         -1.98309        7.55517       -2.72457
C          1.10620        3.76416       -0.36444
C          1.46832        2.45931       -0.01592
H          0.76190       -0.77994       -0.73303
H          0.64506       -0.27284        0.97029
H          2.18154       -0.12350        0.08099
H         -1.09298        0.70826       -1.48345
H          0.02497        5.73407       -2.30530
H         -0.94272        5.86776       -0.77967
H         -4.54552        1.62330       -4.24610
H         -5.24083        3.08927       -4.83516
H         -4.83666        7.23588       -4.31491
H         -3.96218        9.81699       -4.05100
H         -1.57532        9.58373       -2.67600
H          1.70801        4.60960       -0.04801
H          2.36395        2.30366        0.58321

--Link1--
%chk=JID_10996.chk
%mem=8GB
%nprocshared=4
# B3LYP/6-311++G(d,p) empiricaldispersion=gd3bj scf=xqc pop=npa geom=check

CID_44389578_JID_10996_Energie_neutraal

0 1

--Link1--
%chk=JID_10996.chk
%mem=8GB
%nprocshared=4
# B3LYP/6-311++G(d,p) empiricaldispersion=gd3bj scf=xqc pop=npa geom=check

CID_44389578_JID_10996_Energie_kation

1 2

--Link1--
%chk=JID_10996.chk
%mem=8GB
%nprocshared=4
# B3LYP/6-311++G(d,p) empiricaldispersion=gd3bj scf=xqc pop=npa geom=check

CID_44389578_JID_10996_Energie_anion

-1 2
