%chk=JID_7282.chk
%mem=8GB
%nprocshared=4
# opt freq B3LYP/6-31G(d) empiricaldispersion=gd3bj scf=xqc

CID_119813658_JID_7282_neutraal

0 1
C          1.30600        0.17900       -0.14100
C          0.42484       -1.04643        0.03327
C         -0.58976       -0.94310       -1.09960
N         -0.83117        0.51300       -1.18763
C          0.44568        1.17729       -0.89892
C         -0.07139       -1.49214       -2.43455
C         -0.05328       -3.01071       -2.41326
O         -1.07686       -3.64569       -2.15168
N          1.13181       -3.64928       -2.70260
C          2.42470       -3.04404       -2.97518
C          3.31115       -4.20471       -3.40687
C          2.71281       -5.40844       -2.67979
C          1.20972       -5.10451       -2.72141
C          3.21202       -5.59269       -1.25440
C          2.89233       -7.05074       -0.98299
O          2.91661       -7.72739       -2.24759
C          3.06180       -6.75254       -3.28991
H          1.63915        0.56922        0.82585
H          2.19642       -0.07439       -0.72783
H         -0.09048       -0.98630        1.00047
H          1.00490       -1.97409        0.02396
H         -1.52074       -1.45183       -0.82397
H         -1.49235        0.76269       -0.44921
H          0.27856        2.08764       -0.31375
H          0.93272        1.47329       -1.83430
H         -0.74773       -1.20436       -3.24977
H          0.90377       -1.06730       -2.67905
H          2.78516       -2.58198       -2.04994
H          2.34470       -2.28162       -3.75478
H          3.22744       -4.34258       -4.49247
H          4.36526       -4.02543       -3.17398
H          0.75024       -5.43525       -3.66042
H          0.64098       -5.53125       -1.88910
H          4.29866       -5.44806       -1.21017
H          2.75650       -4.92417       -0.51753
H          3.61321       -7.51616       -0.30476
H          1.89061       -7.17116       -0.55781
H          4.10590       -6.78371       -3.62234
H          2.42717       -7.03196       -4.13626

--Link1--
%chk=JID_7282.chk
%mem=8GB
%nprocshared=4
# B3LYP/6-311++G(d,p) empiricaldispersion=gd3bj scf=xqc pop=npa geom=check

CID_119813658_JID_7282_Energie_neutraal

0 1

--Link1--
%chk=JID_7282.chk
%mem=8GB
%nprocshared=4
# B3LYP/6-311++G(d,p) empiricaldispersion=gd3bj scf=xqc pop=npa geom=check

CID_119813658_JID_7282_Energie_kation

1 2

--Link1--
%chk=JID_7282.chk
%mem=8GB
%nprocshared=4
# B3LYP/6-311++G(d,p) empiricaldispersion=gd3bj scf=xqc pop=npa geom=check

CID_119813658_JID_7282_Energie_anion

-1 2
