%chk=JID_9186.chk
%mem=8GB
%nprocshared=4
# opt freq B3LYP/6-31G(d) empiricaldispersion=gd3bj scf=xqc

CID_139584602_JID_9186_neutraal

0 1
C          0.89965        3.59190       -1.27863
C          0.74147        2.27265       -0.52606
C         -0.33218        2.36935        0.57107
C         -1.76732        2.16867        0.06620
C         -2.13517        0.70746       -0.20649
C         -2.33120       -0.06921        1.08165
O         -3.33078        0.06321        1.78137
C         -1.17755       -0.89868        1.50705
C         -0.73986       -0.82670        2.95839
O         -1.42378       -1.97228        2.42891
C          0.69901       -0.76549        3.26914
C          1.72251       -1.26691        2.55349
C          3.18892       -1.13497        2.82671
C          3.96471       -0.20028        1.93551
C          3.63744        0.57387        0.88578
C          2.32940        0.67601        0.21236
O          1.67729       -0.26725       -0.19927
O          2.01270        1.99068        0.09980
O          3.39875       -0.67917        4.15981
H          1.19802        4.39923       -0.60067
H         -0.02513        3.88121       -1.78557
H          1.69362        3.50566       -2.02860
H          0.49644        1.49372       -1.25686
H         -0.11541        1.66148        1.37688
H         -0.26421        3.35792        1.04427
H         -2.45542        2.57415        0.81855
H         -1.92322        2.75351       -0.84722
H         -3.08751        0.66481       -0.74865
H         -1.39530        0.21360       -0.84333
H         -0.45594       -1.11930        0.73392
H         -1.33454       -0.20650        3.62530
H          0.93022       -0.21649        4.17998
H          1.49496       -1.85624        1.66697
H          3.63883       -2.13193        2.76153
H          5.01032       -0.13739        2.24487
H          4.39716        1.21461        0.44648
H          3.17277        0.26516        4.17574

--Link1--
%chk=JID_9186.chk
%mem=8GB
%nprocshared=4
# B3LYP/6-311++G(d,p) empiricaldispersion=gd3bj scf=xqc pop=npa geom=check

CID_139584602_JID_9186_Energie_neutraal

0 1

--Link1--
%chk=JID_9186.chk
%mem=8GB
%nprocshared=4
# B3LYP/6-311++G(d,p) empiricaldispersion=gd3bj scf=xqc pop=npa geom=check

CID_139584602_JID_9186_Energie_kation

1 2

--Link1--
%chk=JID_9186.chk
%mem=8GB
%nprocshared=4
# B3LYP/6-311++G(d,p) empiricaldispersion=gd3bj scf=xqc pop=npa geom=check

CID_139584602_JID_9186_Energie_anion

-1 2
