%chk=JID_10447.chk
%mem=8GB
%nprocshared=4
# opt freq B3LYP/6-31G(d) empiricaldispersion=gd3bj scf=xqc

CID_65859199_JID_10447_neutraal

0 1
C         -2.48100        0.63200       -0.02500
C         -1.11373        0.09897        0.17987
N         -0.22202        0.77590        0.90813
N          0.88078        0.00324        0.89766
C          0.74045       -1.13079        0.13295
C         -0.56377       -1.09663       -0.32330
C          1.79686       -2.17324       -0.08461
C          2.52273       -2.15605       -1.47382
C          3.36036       -0.85583       -1.65763
C          2.59813        0.28867       -2.31087
C          2.08802       -0.13070       -3.67967
C          1.33093       -1.43292       -3.64252
C          0.42824       -1.70017       -4.68644
C         -0.27747       -2.89965       -4.73408
C         -0.08148       -3.85451       -3.74530
C          0.82070       -3.60914       -2.70975
C          1.54543       -2.39895       -2.63727
C          3.51682       -3.27531       -1.42332
N          4.29174       -4.13725       -1.34772
C          2.03486        0.47889        1.62424
H         -2.83238        1.16899        0.86210
H         -2.49492        1.32192       -0.87463
H         -3.18905       -0.17762       -0.22911
H         -1.05376       -1.83178       -0.94738
H          2.54642       -2.11944        0.71455
H          1.31657       -3.15118        0.06915
H          4.23460       -1.06280       -2.29347
H          3.77551       -0.52681       -0.69656
H          1.76356        0.61508       -1.68586
H          3.25968        1.15616       -2.41964
H          1.44650        0.66757       -4.07208
H          2.93220       -0.24448       -4.37122
H          0.27193       -0.96620       -5.47495
H         -0.97352       -3.08988       -5.54670
H         -0.62499       -4.79523       -3.78178
H          0.95421       -4.38566       -1.95784
H          2.53095        1.23632        1.01229
H          1.69854        0.91586        2.56866
H          2.71802       -0.34266        1.83814

--Link1--
%chk=JID_10447.chk
%mem=8GB
%nprocshared=4
# B3LYP/6-311++G(d,p) empiricaldispersion=gd3bj scf=xqc pop=npa geom=check

CID_65859199_JID_10447_Energie_neutraal

0 1

--Link1--
%chk=JID_10447.chk
%mem=8GB
%nprocshared=4
# B3LYP/6-311++G(d,p) empiricaldispersion=gd3bj scf=xqc pop=npa geom=check

CID_65859199_JID_10447_Energie_kation

1 2

--Link1--
%chk=JID_10447.chk
%mem=8GB
%nprocshared=4
# B3LYP/6-311++G(d,p) empiricaldispersion=gd3bj scf=xqc pop=npa geom=check

CID_65859199_JID_10447_Energie_anion

-1 2
