%chk=JID_5036.chk
%mem=8GB
%nprocshared=4
# opt freq B3LYP/6-31G(d) empiricaldispersion=gd3bj scf=xqc

CID_65209471_JID_5036_neutraal

0 1
C         -2.32800       -0.22700        0.00300
C         -0.86830       -0.09989       -0.23378
N         -0.28527       -0.26419       -1.39824
N          1.08239       -0.12066       -1.31113
C          1.51590        0.18497       -0.10055
S          0.21083        0.26574        1.04215
N          2.83628        0.37782        0.22736
C          3.21560        1.28024        1.31316
C          3.33211        2.70272        0.77123
C          4.32944        2.77439       -0.38878
C          4.12686        1.68588       -1.45538
C          3.82337        0.30750       -0.86219
C          3.11465        2.01935       -2.52414
O          3.12476        1.56496       -3.65866
O          2.13826        2.85874       -2.14125
H         -2.65659        0.35201        0.87184
H         -2.88473        0.13396       -0.86778
H         -2.59276       -1.27640        0.16571
H          4.18581        0.96236        1.71648
H          2.52304        1.25004        2.16029
H          3.65733        3.37684        1.57189
H          2.34961        3.05812        0.44069
H          4.29819        3.77344       -0.83939
H          5.33793        2.65533        0.02953
H          5.07614        1.61857       -2.00651
H          3.52671       -0.41131       -1.63674
H          4.75186       -0.09616       -0.43633
H          1.50963        2.83273       -2.89398

--Link1--
%chk=JID_5036.chk
%mem=8GB
%nprocshared=4
# B3LYP/6-311++G(d,p) empiricaldispersion=gd3bj scf=xqc pop=npa geom=check

CID_65209471_JID_5036_Energie_neutraal

0 1

--Link1--
%chk=JID_5036.chk
%mem=8GB
%nprocshared=4
# B3LYP/6-311++G(d,p) empiricaldispersion=gd3bj scf=xqc pop=npa geom=check

CID_65209471_JID_5036_Energie_kation

1 2

--Link1--
%chk=JID_5036.chk
%mem=8GB
%nprocshared=4
# B3LYP/6-311++G(d,p) empiricaldispersion=gd3bj scf=xqc pop=npa geom=check

CID_65209471_JID_5036_Energie_anion

-1 2
