%chk=JID_5062.chk
%mem=8GB
%nprocshared=4
# opt freq B3LYP/6-31G(d) empiricaldispersion=gd3bj scf=xqc

CID_84723123_JID_5062_neutraal

0 1
C          1.02752       -0.09605       -0.00402
C          0.69186        0.23365       -1.45536
C          0.88409       -0.95745       -2.41491
C          0.15299       -2.26318       -2.07683
C         -1.34552       -2.22339       -2.23918
C         -2.18455       -2.46133       -1.14030
C         -3.56794       -2.40902       -1.29705
C         -4.13653       -2.14027       -2.53513
C         -3.31265       -1.92211       -3.63670
C         -1.92457       -1.96623       -3.49101
O         -4.40928       -2.61042       -0.24292
C         -0.69635        0.86790       -1.62101
O         -1.01499        1.59179       -2.55608
O         -1.58297        0.56698       -0.65660
O          1.64671        1.23717       -1.87188
H          0.33981       -0.82709        0.43128
H          0.98624        0.80758        0.61585
H          2.04842       -0.48513        0.08128
H          0.63231       -0.64126       -3.43622
H          1.95882       -1.18606       -2.45534
H          0.52825       -3.05142       -2.74356
H          0.42165       -2.59284       -1.06667
H         -1.75157       -2.66633       -0.16548
H         -5.21678       -2.10613       -2.64271
H         -3.75120       -1.71878       -4.61025
H         -1.29928       -1.79844       -4.36556
H         -3.87599       -2.80220        0.54588
H         -2.42305        0.96919       -0.96401
H          1.28633        1.64170       -2.68602

--Link1--
%chk=JID_5062.chk
%mem=8GB
%nprocshared=4
# B3LYP/6-311++G(d,p) empiricaldispersion=gd3bj scf=xqc pop=npa geom=check

CID_84723123_JID_5062_Energie_neutraal

0 1

--Link1--
%chk=JID_5062.chk
%mem=8GB
%nprocshared=4
# B3LYP/6-311++G(d,p) empiricaldispersion=gd3bj scf=xqc pop=npa geom=check

CID_84723123_JID_5062_Energie_kation

1 2

--Link1--
%chk=JID_5062.chk
%mem=8GB
%nprocshared=4
# B3LYP/6-311++G(d,p) empiricaldispersion=gd3bj scf=xqc pop=npa geom=check

CID_84723123_JID_5062_Energie_anion

-1 2
