%chk=JID_10901.chk
%mem=8GB
%nprocshared=4
# opt freq B3LYP/6-31G(d) empiricaldispersion=gd3bj scf=xqc

CID_116312836_JID_10901_neutraal

0 1
C          1.03311        0.00523        0.09422
C          0.39594       -0.94290        1.03297
N         -0.81459       -0.67007        1.57416
N         -1.07980       -1.74820        2.36996
C         -0.09005       -2.66513        2.31354
C          0.84444       -2.17685        1.49314
C          1.96915       -2.98447        1.33609
C          1.76448       -4.17286        2.03688
S          0.27850       -4.14335        2.97094
C          2.62689       -5.31550        2.18920
O          3.47454       -5.39716        3.07888
N          2.52649       -6.37492        1.32030
C          1.79062       -6.57570        0.06558
C          2.37449       -5.74300       -1.08277
C          1.80501       -6.13666       -2.44655
C          0.29240       -5.97287       -2.53754
S         -0.57245       -7.01615       -1.32710
C          0.26845       -6.42880        0.17910
N          3.07932       -2.67816        0.62555
C         -2.29991       -1.80812        3.13243
H          0.36823        0.84118       -0.14680
H          1.29207       -0.49709       -0.84329
H          1.94826        0.41763        0.53069
H          3.20932       -7.08633        1.55306
H          1.99654       -7.63080       -0.16565
H          2.17999       -4.67967       -0.92119
H          3.46498       -5.86083       -1.10721
H          2.27240       -5.50842       -3.21460
H          2.08689       -7.17107       -2.68074
H          0.00477       -4.92872       -2.37442
H         -0.05097       -6.25485       -3.53790
H         -0.11016       -7.00551        1.02920
H         -0.02987       -5.38859        0.32082
H          3.94475       -3.18714        0.80043
H          3.26593       -1.71217        0.36977
H         -2.94491       -2.56976        2.68792
H         -2.05554       -2.06618        4.16579
H         -2.79513       -0.83413        3.10444

--Link1--
%chk=JID_10901.chk
%mem=8GB
%nprocshared=4
# B3LYP/6-311++G(d,p) empiricaldispersion=gd3bj scf=xqc pop=npa geom=check

CID_116312836_JID_10901_Energie_neutraal

0 1

--Link1--
%chk=JID_10901.chk
%mem=8GB
%nprocshared=4
# B3LYP/6-311++G(d,p) empiricaldispersion=gd3bj scf=xqc pop=npa geom=check

CID_116312836_JID_10901_Energie_kation

1 2

--Link1--
%chk=JID_10901.chk
%mem=8GB
%nprocshared=4
# B3LYP/6-311++G(d,p) empiricaldispersion=gd3bj scf=xqc pop=npa geom=check

CID_116312836_JID_10901_Energie_anion

-1 2
