%chk=JID_8804.chk
%mem=8GB
%nprocshared=4
# opt freq B3LYP/6-31G(d) empiricaldispersion=gd3bj scf=xqc

CID_113988985_JID_8804_neutraal

0 1
C         -2.57700       -0.70400        0.00100
C         -1.67015       -1.91126        0.27673
C         -0.33655       -1.37736       -0.13893
C         -0.35159        0.02235       -0.18368
C         -1.70872        0.55489        0.20314
N         -2.10280        1.63839       -0.68461
C         -3.27840        2.35861       -0.47515
C         -3.92622        2.45055        0.76233
C         -5.06145        3.25213        0.92777
C         -5.54293        3.99596       -0.13895
C         -4.90102        3.95903       -1.36830
C         -3.76797        3.15345       -1.52451
O         -6.64766        4.76653        0.06652
C          0.79788        0.73652       -0.49459
C          1.96850        0.02894       -0.77984
C          1.96863       -1.37107       -0.73306
C          0.82086       -2.08873       -0.40648
O          3.10258       -2.08328       -0.99934
H         -2.93937       -0.75956       -1.03589
H         -3.46358       -0.70454        0.64389
H         -1.97485       -2.78138       -0.31140
H         -1.65965       -2.16329        1.34214
H         -1.66366        0.85838        1.25554
H         -1.95197        1.40824       -1.66346
H         -3.56481        1.90760        1.62924
H         -5.55729        3.30224        1.89283
H         -5.25206        4.54894       -2.20827
H         -3.26014        3.15197       -2.48623
H         -6.85326        5.23686       -0.75779
H          0.78543        1.82267       -0.51253
H          2.87013        0.58042       -1.02779
H          0.84262       -3.17224       -0.36180
H          3.81713       -1.45822       -1.20343

--Link1--
%chk=JID_8804.chk
%mem=8GB
%nprocshared=4
# B3LYP/6-311++G(d,p) empiricaldispersion=gd3bj scf=xqc pop=npa geom=check

CID_113988985_JID_8804_Energie_neutraal

0 1

--Link1--
%chk=JID_8804.chk
%mem=8GB
%nprocshared=4
# B3LYP/6-311++G(d,p) empiricaldispersion=gd3bj scf=xqc pop=npa geom=check

CID_113988985_JID_8804_Energie_kation

1 2

--Link1--
%chk=JID_8804.chk
%mem=8GB
%nprocshared=4
# B3LYP/6-311++G(d,p) empiricaldispersion=gd3bj scf=xqc pop=npa geom=check

CID_113988985_JID_8804_Energie_anion

-1 2
