%chk=JID_8038.chk
%mem=8GB
%nprocshared=4
# opt freq B3LYP/6-31G(d) empiricaldispersion=gd3bj scf=xqc

CID_106992259_JID_8038_neutraal

0 1
C          0.90979       -0.00782        0.04243
C          1.03364       -0.09956       -1.47498
C          2.10005        0.82734       -2.05995
C          3.53832        0.33735       -1.83783
C          3.69330       -1.16514       -2.23214
N          2.64241       -2.02275       -1.63910
C          1.28383       -1.53834       -1.93096
C          2.75635       -3.47538       -1.91676
C          2.09647       -4.09988       -3.17848
C          2.61186       -3.56251       -4.51798
O          3.93890       -4.04336       -4.75006
C          4.81892       -3.13694       -5.42576
C          4.24932       -2.41328       -6.65162
O          3.60716       -1.20596       -6.22105
C          3.12519       -0.43394       -7.31057
O          2.31100       -5.52319       -3.15243
C          5.11714       -1.63806       -1.88632
C          4.05098        0.68386       -0.43413
H         -0.03096       -0.46742        0.36722
H          0.89573        1.03480        0.37597
H          1.70802       -0.53278        0.57044
H          0.06659        0.22133       -1.88584
H          1.93198        0.88678       -3.14474
H          1.97165        1.84930       -1.68356
H          4.16389        0.91881       -2.53119
H          3.60262       -1.19482       -3.32144
H          0.54702       -2.18780       -1.44021
H          1.08157       -1.58652       -3.00776
H          3.79061       -3.82537       -1.84041
H          2.28412       -3.97515       -1.05762
H          1.01280       -3.95291       -3.12712
H          1.99118       -3.96550       -5.32629
H          2.53508       -2.47834       -4.54632
H          5.18985       -2.41362       -4.69482
H          5.67110       -3.74642       -5.74396
H          5.07373       -2.13951       -7.31914
H          3.53138       -3.04270       -7.18720
H          3.95245       -0.12606       -7.95664
H          2.38445       -0.99947       -7.88267
H          2.64644        0.46291       -6.90734
H          3.19699       -5.65106       -3.54258
H          5.37092       -2.57872       -2.38206
H          5.86010       -0.90436       -2.21891
H          5.24398       -1.78533       -0.80821
H          5.14631        0.70743       -0.42395
H          3.71208        1.67723       -0.12158
H          3.74080       -0.04258        0.31910

--Link1--
%chk=JID_8038.chk
%mem=8GB
%nprocshared=4
# B3LYP/6-311++G(d,p) empiricaldispersion=gd3bj scf=xqc pop=npa geom=check

CID_106992259_JID_8038_Energie_neutraal

0 1

--Link1--
%chk=JID_8038.chk
%mem=8GB
%nprocshared=4
# B3LYP/6-311++G(d,p) empiricaldispersion=gd3bj scf=xqc pop=npa geom=check

CID_106992259_JID_8038_Energie_kation

1 2

--Link1--
%chk=JID_8038.chk
%mem=8GB
%nprocshared=4
# B3LYP/6-311++G(d,p) empiricaldispersion=gd3bj scf=xqc pop=npa geom=check

CID_106992259_JID_8038_Energie_anion

-1 2
