%chk=JID_5303.chk
%mem=8GB
%nprocshared=4
# opt=(cartesian,calcfc) freq B3LYP/6-31G(d) empiricaldispersion=gd3bj scf=xqc

CID_59047328_JID_5303_neutraal

0 1
6	1.517487	 2.355738	 -0.789411
6	2.378373	 1.511439	 0.124930
8	2.641193	 1.830742	 1.271183
6	2.921244	 0.206514	 -0.479749
8	1.866356	 -0.625013	 -0.940656
6	1.487829	 -1.684887	 -0.048756
6	0.358734	 -2.440359	 -0.748574
6	-0.909669	 -1.587855	 -0.832627
7	-1.312153	 -1.141735	 0.507114
6	-0.277712	 -0.365771	 1.193362
6	1.006075	 -1.184911	 1.318199
6	-2.617995	 -0.537881	 0.574298
6	-2.815512	 0.785573	 -0.168693
8	-2.076503	 1.270706	 -1.002356
8	-3.979844	 1.371128	 0.207917
1	1.053708	 3.166279	 -0.222737
1	0.750218	 1.745120	 -1.274852
1	2.145426	 2.782699	 -1.582758
1	3.541205	 0.449610	 -1.354362
1	3.551197	 -0.293857	 0.266383
1	2.357849	 -2.346831	 0.088702
1	0.679575	 -2.727653	 -1.755902
1	0.150716	 -3.355336	 -0.181262
1	-0.740626	 -0.744191	 -1.514508
1	-1.730506	 -2.187960	 -1.244996
1	-0.646976	 -0.114829	 2.194786
1	-0.071504	 0.585579	 0.680104
1	0.811014	 -2.064592	 1.943739
1	1.777951	 -0.591715	 1.818102
1	-3.366691	 -1.232475	 0.169599
1	-2.892682	 -0.369080	 1.622418
1	-4.087538	 2.165275	 -0.348842

--Link1--
%chk=JID_5303.chk
%mem=8GB
%nprocshared=4
# B3LYP/6-311++G(d,p) empiricaldispersion=gd3bj scf=xqc pop=npa geom=check

CID_59047328_JID_5303_Energie_neutraal

0 1

--Link1--
%chk=JID_5303.chk
%mem=8GB
%nprocshared=4
# B3LYP/6-311++G(d,p) empiricaldispersion=gd3bj scf=xqc pop=npa geom=check

CID_59047328_JID_5303_Energie_kation

1 2

--Link1--
%chk=JID_5303.chk
%mem=8GB
%nprocshared=4
# B3LYP/6-311++G(d,p) empiricaldispersion=gd3bj scf=xqc pop=npa geom=check

CID_59047328_JID_5303_Energie_anion

-1 2
