%chk=JID_7371.chk
%mem=8GB
%nprocshared=4
# opt freq B3LYP/6-31G(d) empiricaldispersion=gd3bj scf=xqc

CID_79787876_JID_7371_neutraal

0 1
C          0.98646        0.07464       -0.06516
C          0.34600        0.74657        1.13746
N          0.98068        2.00601        1.46288
C          0.57480        3.28697        1.18869
N          1.47640        4.12645        1.66565
C          2.40550        3.30794        2.23577
N          2.14290        2.00475        2.14645
C         -0.68949        3.66186        0.49799
O         -0.84790        2.89468       -0.69884
C         -0.35798        3.42539       -1.85614
C         -0.92689        2.96309       -3.03637
N         -0.55373        3.35711       -4.27678
C          0.46655        4.24516       -4.36369
C          1.10397        4.75204       -3.23113
C          0.68507        4.33648       -1.96526
C          0.90820        4.67385       -5.74806
N          2.20548        4.11814       -6.14090
H          0.93981        0.71287       -0.95274
H          0.47335       -0.86490       -0.29220
H          2.04105       -0.15188        0.12464
H         -0.71935        0.92383        0.96463
H          0.42676        0.10300        2.02100
H          3.29521        3.67129        2.73315
H         -1.53491        3.41701        1.15098
H         -0.74896        4.73979        0.30484
H         -1.73458        2.23685       -3.01477
H          1.92547        5.45479       -3.32577
H          1.20993        4.72175       -1.09670
H          0.15566        4.35448       -6.47795
H          0.94714        5.76853       -5.78957
H          2.43763        4.44828       -7.07480
H          2.93026        4.46137       -5.51611

--Link1--
%chk=JID_7371.chk
%mem=8GB
%nprocshared=4
# B3LYP/6-311++G(d,p) empiricaldispersion=gd3bj scf=xqc pop=npa geom=check

CID_79787876_JID_7371_Energie_neutraal

0 1

--Link1--
%chk=JID_7371.chk
%mem=8GB
%nprocshared=4
# B3LYP/6-311++G(d,p) empiricaldispersion=gd3bj scf=xqc pop=npa geom=check

CID_79787876_JID_7371_Energie_kation

1 2

--Link1--
%chk=JID_7371.chk
%mem=8GB
%nprocshared=4
# B3LYP/6-311++G(d,p) empiricaldispersion=gd3bj scf=xqc pop=npa geom=check

CID_79787876_JID_7371_Energie_anion

-1 2
