%chk=JID_6591.chk
%mem=8GB
%nprocshared=4
# opt freq B3LYP/6-31G(d) empiricaldispersion=gd3bj scf=xqc

CID_89402466_JID_6591_neutraal

0 1
C          1.06470       -0.02973       -0.07021
C          0.23810        1.21610       -0.07247
C         -0.42941        1.78188       -1.08972
C         -0.51168        1.28377       -2.44449
C         -1.13536        1.88241       -3.47310
C         -1.82778        3.17653       -3.43690
C         -1.07193        4.34687       -3.35909
N         -1.58593        5.59562       -3.33839
C         -2.92771        5.69381       -3.42585
C         -3.45518        7.05869       -3.40831
C         -4.72991        7.30981       -3.73714
C         -5.67814        6.21343       -4.11841
C         -5.28130        4.83703       -3.56183
C         -3.78962        4.59171       -3.52381
C         -3.22866        3.29524       -3.49524
C         -4.11483        2.07859       -3.56761
H          1.14439       -0.50611       -1.04937
H          0.63322       -0.75663        0.62502
H          2.07882        0.20416        0.26913
H          0.18837        1.72145        0.89201
H         -0.97217        2.70161       -0.87178
H         -0.04074        0.32550       -2.64950
H         -1.14929        1.38996       -4.44338
H          0.01373        4.30782       -3.30792
H         -2.75959        7.85246       -3.15928
H         -5.09044        8.33386       -3.76287
H         -5.72499        6.17138       -5.21389
H         -6.68740        6.45902       -3.76832
H         -5.78464        4.07623       -4.16902
H         -5.65959        4.74174       -2.53569
H         -5.00016        2.20347       -2.93547
H         -4.43049        1.90898       -4.60178
H         -3.61657        1.17442       -3.20619

--Link1--
%chk=JID_6591.chk
%mem=8GB
%nprocshared=4
# B3LYP/6-311++G(d,p) empiricaldispersion=gd3bj scf=xqc pop=npa geom=check

CID_89402466_JID_6591_Energie_neutraal

0 1

--Link1--
%chk=JID_6591.chk
%mem=8GB
%nprocshared=4
# B3LYP/6-311++G(d,p) empiricaldispersion=gd3bj scf=xqc pop=npa geom=check

CID_89402466_JID_6591_Energie_kation

1 2

--Link1--
%chk=JID_6591.chk
%mem=8GB
%nprocshared=4
# B3LYP/6-311++G(d,p) empiricaldispersion=gd3bj scf=xqc pop=npa geom=check

CID_89402466_JID_6591_Energie_anion

-1 2
