%chk=JID_7029.chk
%mem=8GB
%nprocshared=4
# opt freq B3LYP/6-31G(d) empiricaldispersion=gd3bj scf=xqc

CID_76845625_JID_7029_neutraal

0 1
C          0.94508        0.06357       -0.05425
O          1.35118       -1.29321       -0.16379
C          1.59359       -1.70170       -1.50685
C          1.24368       -3.15829       -1.57142
C          2.11393       -4.13827       -1.85165
C          3.53990       -3.82628       -2.11654
N          4.37621       -4.79093       -2.33764
C          5.70530       -4.47624       -2.56680
C          6.20266       -3.22907       -2.62831
C          5.32540       -2.06635       -2.42210
O          5.75756       -0.92365       -2.50453
C          3.92151       -2.39626       -2.11633
C          3.02816       -1.43510       -1.83688
C          6.65166       -5.64026       -2.76752
O          6.28869       -6.80370       -2.87879
O          7.95070       -5.23156       -2.78472
C          8.89203       -6.29565       -2.93088
H          0.77848        0.28651        1.00315
H          0.00741        0.22774       -0.59403
H          1.71987        0.73693       -0.43173
H          0.94324       -1.16224       -2.20686
H          0.21006       -3.41577       -1.35714
H          1.82435       -5.18274       -1.87340
H          7.24185       -2.99493       -2.82088
H          3.34372       -0.39507       -1.83868
H          8.82148       -6.98766       -2.08582
H          8.73549       -6.82023       -3.87852
H          9.89515       -5.86035       -2.93801

--Link1--
%chk=JID_7029.chk
%mem=8GB
%nprocshared=4
# B3LYP/6-311++G(d,p) empiricaldispersion=gd3bj scf=xqc pop=npa geom=check

CID_76845625_JID_7029_Energie_neutraal

0 1

--Link1--
%chk=JID_7029.chk
%mem=8GB
%nprocshared=4
# B3LYP/6-311++G(d,p) empiricaldispersion=gd3bj scf=xqc pop=npa geom=check

CID_76845625_JID_7029_Energie_kation

1 2

--Link1--
%chk=JID_7029.chk
%mem=8GB
%nprocshared=4
# B3LYP/6-311++G(d,p) empiricaldispersion=gd3bj scf=xqc pop=npa geom=check

CID_76845625_JID_7029_Energie_anion

-1 2
