%chk=JID_7493.chk
%mem=8GB
%nprocshared=4
# opt=(cartesian,calcfc) freq B3LYP/6-31G(d) empiricaldispersion=gd3bj scf=xqc

CID_55070953_JID_7493_neutraal

0 1
6	5.130063	 0.259979	 -0.037327
6	3.777286	 -0.392614	 -0.015990
6	2.607188	 0.363518	 -0.062190
6	1.406795	 -0.351546	 -0.029121
7	1.371635	 -1.692548	 0.041684
6	2.556382	 -2.307750	 0.076092
7	3.758292	 -1.741254	 0.052545
7	0.144725	 0.246560	 -0.062956
6	-0.310843	 1.571911	 0.006087
16	0.616847	 2.969411	 0.045087
6	-1.736538	 1.451489	 0.025893
6	-2.086711	 0.124388	 -0.026239
7	-0.943811	 -0.605613	 -0.136386
6	-3.434344	 -0.558389	 -0.000385
6	-3.572592	 -1.471860	 -1.236826
6	-3.545957	 -1.403784	 1.287974
6	-4.547995	 0.500019	 -0.015273
1	5.736534	 -0.160196	 -0.846614
1	5.054528	 1.342370	 -0.166240
1	5.658606	 0.050980	 0.899659
1	2.608181	 1.442695	 -0.117615
1	2.526702	 -3.394068	 0.130746
1	-2.398165	 2.301136	 0.061313
1	-0.742380	 -1.574395	 0.081413
1	-2.809856	 -2.257801	 -1.247606
1	-4.554950	 -1.956288	 -1.233240
1	-3.475435	 -0.895250	 -2.162209
1	-3.435781	 -0.776523	 2.178404
1	-4.525305	 -1.892622	 1.329634
1	-2.780947	 -2.187592	 1.327530
1	-4.482756	 1.158681	 0.856791
1	-4.494809	 1.117616	 -0.917692
1	-5.526009	 0.008493	 0.003956

--Link1--
%chk=JID_7493.chk
%mem=8GB
%nprocshared=4
# B3LYP/6-311++G(d,p) empiricaldispersion=gd3bj scf=xqc pop=npa geom=check

CID_55070953_JID_7493_Energie_neutraal

0 1

--Link1--
%chk=JID_7493.chk
%mem=8GB
%nprocshared=4
# B3LYP/6-311++G(d,p) empiricaldispersion=gd3bj scf=xqc pop=npa geom=check

CID_55070953_JID_7493_Energie_kation

1 2

--Link1--
%chk=JID_7493.chk
%mem=8GB
%nprocshared=4
# B3LYP/6-311++G(d,p) empiricaldispersion=gd3bj scf=xqc pop=npa geom=check

CID_55070953_JID_7493_Energie_anion

-1 2
