%chk=JID_8703.chk
%mem=8GB
%nprocshared=4
# opt freq B3LYP/6-31G(d) empiricaldispersion=gd3bj scf=xqc

CID_62844041_JID_8703_neutraal

0 1
C          2.39800        0.93500       -0.28200
C          2.39449       -0.41941        0.44839
C          1.22598       -1.32601        0.00101
C         -0.05717       -0.55210       -0.11096
C         -0.08835        0.83046       -0.14215
C          1.10599        1.72610       -0.02822
S         -1.66602        1.45197       -0.28511
C         -2.33879       -0.12048       -0.32158
C         -1.37460       -1.09964       -0.21923
N          1.48460       -1.90940       -1.30350
C          2.20814       -3.02792       -1.60764
O          2.44101       -3.26300       -2.79428
C          2.64849       -3.95612       -0.45733
C          1.47662       -4.81130        0.03848
C          1.86169       -6.23080       -0.34752
C          3.38332       -6.19767       -0.29783
N          3.67909       -4.90925       -0.92385
O          1.41241       -6.49746       -1.67576
H          3.25836        1.53084        0.04349
H          2.51969        0.76536       -1.35937
H          3.35562       -0.92147        0.28863
H          2.30805       -0.23017        1.52653
H          1.10355       -2.12970        0.73383
H          1.13454        2.15138        0.98263
H          1.04455        2.55957       -0.73711
H         -3.40790       -0.25123       -0.41884
H         -1.60267       -2.15908       -0.23216
H          1.24183       -1.36097       -2.12087
H          3.06319       -3.35701        0.35978
H          1.41533       -4.73570        1.13078
H          0.51319       -4.51855       -0.39166
H          1.42868       -6.98006        0.32057
H          3.84035       -7.01302       -0.86520
H          3.74821       -6.21386        0.73499
H          4.61996       -4.58076       -0.72102
H          1.96131       -5.93627       -2.26407

--Link1--
%chk=JID_8703.chk
%mem=8GB
%nprocshared=4
# B3LYP/6-311++G(d,p) empiricaldispersion=gd3bj scf=xqc pop=npa geom=check

CID_62844041_JID_8703_Energie_neutraal

0 1

--Link1--
%chk=JID_8703.chk
%mem=8GB
%nprocshared=4
# B3LYP/6-311++G(d,p) empiricaldispersion=gd3bj scf=xqc pop=npa geom=check

CID_62844041_JID_8703_Energie_kation

1 2

--Link1--
%chk=JID_8703.chk
%mem=8GB
%nprocshared=4
# B3LYP/6-311++G(d,p) empiricaldispersion=gd3bj scf=xqc pop=npa geom=check

CID_62844041_JID_8703_Energie_anion

-1 2
