%chk=JID_8547.chk
%mem=8GB
%nprocshared=4
# opt freq B3LYP/6-31G(d) empiricaldispersion=gd3bj scf=xqc

CID_61439891_JID_8547_neutraal

0 1
C         -0.02900        0.88300        0.00000
C         -0.23438       -0.60172        0.07265
C          1.10225       -0.00796        0.45215
C          2.28846       -0.28014       -0.41738
N          3.43624        0.60223       -0.25584
C          3.24015        1.99751       -0.65769
C          2.77367        2.95552        0.45056
N          3.51899        2.80567        1.69602
C          3.74949        1.43048        2.14153
C          4.17636        0.48446        1.00295
C          3.46006        3.87091        2.59922
O          3.04860        4.99413        2.32557
C          3.97697        3.61069        4.02483
O          3.35846        2.86813        4.77744
N          5.15718        4.20871        4.39637
C          5.86844        5.24737        3.66602
C          5.36663        6.65771        4.01629
N          5.38214        6.89510        5.46490
H         -0.51766        1.49904        0.74682
H          0.02353        1.33711       -0.98287
H         -0.86191       -0.98857        0.86808
H         -0.31982       -1.14737       -0.86044
H          1.33915       -0.05867        1.50668
H          2.61168       -1.31382       -0.23868
H          1.98827       -0.26427       -1.47361
H          4.21226        2.36107       -1.01725
H          2.56880        2.07038       -1.52182
H          1.71825        2.79753        0.68989
H          2.86507        3.98759        0.09248
H          2.82538        1.08407        2.61441
H          4.53047        1.41978        2.90865
H          4.18204       -0.55102        1.36451
H          5.22529        0.71213        0.76927
H          5.41719        4.06375        5.36356
H          6.92557        5.14967        3.93708
H          5.78139        5.07225        2.58949
H          6.00195        7.40016        3.52236
H          4.34470        6.80242        3.65267
H          5.03859        7.83935        5.64313
H          4.69551        6.27445        5.89652

--Link1--
%chk=JID_8547.chk
%mem=8GB
%nprocshared=4
# B3LYP/6-311++G(d,p) empiricaldispersion=gd3bj scf=xqc pop=npa geom=check

CID_61439891_JID_8547_Energie_neutraal

0 1

--Link1--
%chk=JID_8547.chk
%mem=8GB
%nprocshared=4
# B3LYP/6-311++G(d,p) empiricaldispersion=gd3bj scf=xqc pop=npa geom=check

CID_61439891_JID_8547_Energie_kation

1 2

--Link1--
%chk=JID_8547.chk
%mem=8GB
%nprocshared=4
# B3LYP/6-311++G(d,p) empiricaldispersion=gd3bj scf=xqc pop=npa geom=check

CID_61439891_JID_8547_Energie_anion

-1 2
