%chk=JID_3094.chk
%mem=8GB
%nprocshared=4
# opt freq B3LYP/6-31G(d) empiricaldispersion=gd3bj scf=xqc

CID_82870517_JID_3094_neutraal

0 1
C          1.02704       -0.00330        0.09622
C          0.33201       -1.27485       -0.40475
C          0.77505       -2.52882        0.37752
C          0.18872       -2.71059        1.74222
N          0.21159       -1.72910        2.65255
N         -0.38125       -2.26645        3.73306
C         -0.77540       -3.55732        3.54941
C         -0.41775       -3.87986        2.26249
C         -0.54642       -1.46798        4.92274
C         -1.19482       -1.11454       -0.42846
C         -1.64005       -0.13808       -1.49815
O         -1.48572       -0.38182       -2.69478
C         -2.26811        1.14956       -1.03415
H          0.63774        0.32787        1.06305
H          0.88397        0.81922       -0.61271
H          2.10616       -0.16047        0.19618
H          0.68138       -1.42228       -1.43648
H          0.50932       -3.40828       -0.22523
H          1.86930       -2.54545        0.46120
H         -1.26120       -4.12784        4.32816
H         -0.56574       -4.82801        1.76503
H          0.42782       -1.06347        5.20819
H         -1.24750       -0.66036        4.69773
H         -0.94036       -2.09256        5.72823
H         -1.68440       -2.07041       -0.65082
H         -1.57783       -0.77875        0.54162
H         -3.16894        0.93032       -0.45582
H         -1.55528        1.70931       -0.42413
H         -2.54457        1.75715       -1.90033

--Link1--
%chk=JID_3094.chk
%mem=8GB
%nprocshared=4
# B3LYP/6-311++G(d,p) empiricaldispersion=gd3bj scf=xqc pop=npa geom=check

CID_82870517_JID_3094_Energie_neutraal

0 1

--Link1--
%chk=JID_3094.chk
%mem=8GB
%nprocshared=4
# B3LYP/6-311++G(d,p) empiricaldispersion=gd3bj scf=xqc pop=npa geom=check

CID_82870517_JID_3094_Energie_kation

1 2

--Link1--
%chk=JID_3094.chk
%mem=8GB
%nprocshared=4
# B3LYP/6-311++G(d,p) empiricaldispersion=gd3bj scf=xqc pop=npa geom=check

CID_82870517_JID_3094_Energie_anion

-1 2
