%chk=JID_6149.chk
%mem=8GB
%nprocshared=4
# opt freq B3LYP/6-31G(d) empiricaldispersion=gd3bj scf=xqc

CID_90747118_JID_6149_neutraal

0 1
C          0.94071       -0.03839       -0.07079
C          0.78637       -0.85518        1.20855
C          1.13418       -0.10498        2.50333
S          0.16154        1.40563        2.82622
C          1.14217        2.63013        2.01853
O          2.28310        2.36913        1.64706
C          0.56740        4.05787        1.91071
C         -0.95620        4.18239        1.73569
S         -1.93560        4.20325        3.27975
N          1.08946        4.90274        2.98753
C          2.25478        5.60755        3.02848
O          2.59247        6.14923        4.07863
C          3.07746        5.71888        1.77529
C         -0.56976       -1.54371        1.34642
O         -0.68721       -2.54386        2.05898
C         -1.77211       -0.96349        0.64611
H          0.24165        0.80143       -0.12352
H          0.75570       -0.66638       -0.94958
H          1.95847        0.35499       -0.15854
H          1.50505       -1.68331        1.12110
H          0.95134       -0.76570        3.35920
H          2.20497        0.12211        2.53089
H          0.98925        4.42685        0.96661
H         -1.17037        5.13849        1.24429
H         -1.34399        3.39415        1.08165
H         -1.67544        2.93866        3.65232
H          0.61898        4.86129        3.88735
H          3.44527        4.73680        1.47209
H          2.48586        6.16915        0.97409
H          3.94002        6.36454        1.96621
H         -1.92188        0.07595        0.94388
H         -1.64667       -1.03631       -0.43642
H         -2.66413       -1.53141        0.92723

--Link1--
%chk=JID_6149.chk
%mem=8GB
%nprocshared=4
# B3LYP/6-311++G(d,p) empiricaldispersion=gd3bj scf=xqc pop=npa geom=check

CID_90747118_JID_6149_Energie_neutraal

0 1

--Link1--
%chk=JID_6149.chk
%mem=8GB
%nprocshared=4
# B3LYP/6-311++G(d,p) empiricaldispersion=gd3bj scf=xqc pop=npa geom=check

CID_90747118_JID_6149_Energie_kation

1 2

--Link1--
%chk=JID_6149.chk
%mem=8GB
%nprocshared=4
# B3LYP/6-311++G(d,p) empiricaldispersion=gd3bj scf=xqc pop=npa geom=check

CID_90747118_JID_6149_Energie_anion

-1 2
