%chk=JID_8868.chk
%mem=8GB
%nprocshared=4
# opt freq B3LYP/6-31G(d) empiricaldispersion=gd3bj scf=xqc

CID_43382112_JID_8868_neutraal

0 1
C          0.98372       -0.06653        0.07286
C          0.84760       -0.76845        1.41227
O          1.22900        0.04131        2.52159
C          2.59434        0.43795        2.57579
C          3.43856       -0.47075        3.46983
C          3.76759       -1.83898        2.87429
N          4.44505       -1.69441        1.60483
C          4.74869       -2.67631        0.71772
N          5.56919       -2.46282       -0.25834
C          5.66012       -3.67566       -1.09946
C          5.34554       -4.90992       -0.25599
S          4.07497       -4.27917        0.86259
C          4.99454       -6.12335       -1.08387
C          3.71047       -6.35509       -1.60144
C          3.45048       -7.47500       -2.39604
C          4.47214       -8.37109       -2.69997
C          5.75577       -8.14918       -2.21029
C          6.01490       -7.03438       -1.41047
H          0.57481        0.94767        0.11806
H          0.45822       -0.62746       -0.70605
H          2.03098        0.01420       -0.23258
H         -0.20833       -1.01553        1.56727
H          1.39328       -1.71325        1.40936
H          3.03654        0.56759        1.58462
H          2.59265        1.43373        3.03485
H          4.37971        0.04737        3.69291
H          2.91807       -0.62619        4.42220
H          4.42173       -2.37707        3.57027
H          2.85269       -2.42942        2.77752
H          5.06547       -0.89794        1.51003
H          6.67321       -3.75237       -1.51213
H          4.97840       -3.56555       -1.95346
H          6.20761       -5.14337        0.38191
H          2.89303       -5.66732       -1.39554
H          2.44809       -7.64454       -2.78095
H          4.26851       -9.23908       -3.32135
H          6.55736       -8.84201       -2.45278
H          7.02872       -6.87842       -1.04588

--Link1--
%chk=JID_8868.chk
%mem=8GB
%nprocshared=4
# B3LYP/6-311++G(d,p) empiricaldispersion=gd3bj scf=xqc pop=npa geom=check

CID_43382112_JID_8868_Energie_neutraal

0 1

--Link1--
%chk=JID_8868.chk
%mem=8GB
%nprocshared=4
# B3LYP/6-311++G(d,p) empiricaldispersion=gd3bj scf=xqc pop=npa geom=check

CID_43382112_JID_8868_Energie_kation

1 2

--Link1--
%chk=JID_8868.chk
%mem=8GB
%nprocshared=4
# B3LYP/6-311++G(d,p) empiricaldispersion=gd3bj scf=xqc pop=npa geom=check

CID_43382112_JID_8868_Energie_anion

-1 2
