%chk=JID_7160.chk
%mem=8GB
%nprocshared=4
# opt freq B3LYP/6-31G(d) empiricaldispersion=gd3bj scf=xqc

CID_24022_JID_7160_neutraal

0 1
C         -1.50500        0.02200       -0.20100
C         -0.55472        1.21077       -0.12201
C          0.83426        0.84042       -0.63343
N          1.37012       -0.32248        0.06959
C          0.50337       -1.51312       -0.07340
C         -0.89346       -1.19713        0.48655
C          1.18711       -2.75939        0.56165
C          0.40215       -4.04336        0.40464
O         -0.37229       -4.13823        1.59338
C          0.44696       -3.52541        2.59914
O          1.37868       -2.63224        1.97402
C         -0.39276       -2.82298        3.64653
C          0.10129       -1.70120        4.33313
C         -0.66086       -1.07038        5.31859
C         -1.92395       -1.55940        5.64258
C         -2.42419       -2.68033        4.98419
C         -1.66223       -3.31070        3.99777
H         -2.46237        0.27563        0.26745
H         -1.71225       -0.21456       -1.25182
H         -0.95598        2.04622       -0.70651
H         -0.48459        1.55265        0.91855
H          0.80380        0.64753       -1.71257
H          1.50935        1.68936       -0.47963
H          2.31094       -0.52785       -0.26170
H          0.40246       -1.72777       -1.14677
H         -0.83699       -0.99353        1.56040
H         -1.56731       -2.04950        0.34940
H          2.17184       -2.87816        0.09281
H          1.07395       -4.90919        0.37681
H         -0.23738       -4.07545       -0.48170
H          1.02549       -4.31507        3.09405
H          1.08448       -1.30209        4.08849
H         -0.26703       -0.19563        5.82909
H         -2.51782       -1.06684        6.40755
H         -3.40874       -3.06492        5.23645
H         -2.06833       -4.18568        3.49386

--Link1--
%chk=JID_7160.chk
%mem=8GB
%nprocshared=4
# B3LYP/6-311++G(d,p) empiricaldispersion=gd3bj scf=xqc pop=npa geom=check

CID_24022_JID_7160_Energie_neutraal

0 1

--Link1--
%chk=JID_7160.chk
%mem=8GB
%nprocshared=4
# B3LYP/6-311++G(d,p) empiricaldispersion=gd3bj scf=xqc pop=npa geom=check

CID_24022_JID_7160_Energie_kation

1 2

--Link1--
%chk=JID_7160.chk
%mem=8GB
%nprocshared=4
# B3LYP/6-311++G(d,p) empiricaldispersion=gd3bj scf=xqc pop=npa geom=check

CID_24022_JID_7160_Energie_anion

-1 2
