%chk=JID_8114.chk
%mem=8GB
%nprocshared=4
# opt freq B3LYP/6-31G(d) empiricaldispersion=gd3bj scf=xqc

CID_151292037_JID_8114_neutraal

0 1
C          0.99374       -0.04526        0.08895
C         -0.14873       -0.92486        0.60301
C         -0.29418       -0.76554        2.11570
C         -1.47990       -0.61223       -0.09713
O         -1.38514       -0.91839       -1.49976
C         -1.25715        0.14016       -2.36039
O         -1.26715        1.30890       -1.99221
N         -1.04995       -0.29741       -3.68250
N         -0.99790       -1.67302       -3.92858
C         -2.01333       -2.30110       -4.60546
O         -2.18579       -3.50996       -4.51132
O         -2.74780       -1.45827       -5.37499
C         -3.77263       -1.97787       -6.24899
C         -3.21040       -2.93020       -7.30001
C         -4.94588       -2.56304       -5.47313
N         -0.66167        0.50923       -4.72100
N         -0.74256        1.74582       -4.57574
N         -0.80310        2.88248       -4.50393
H          0.76494        1.01788        0.21840
H          1.18827       -0.22781       -0.97237
H          1.92149       -0.25927        0.63057
H          0.11986       -1.96675        0.38613
H         -0.55191        0.26460        2.38424
H         -1.07855       -1.42416        2.50314
H          0.63975       -1.02465        2.62592
H         -2.26828       -1.25820        0.30586
H         -1.79730        0.42092        0.08595
H         -0.56380       -2.23090       -3.20360
H         -4.14667       -1.09708       -6.78493
H         -2.90324       -3.88624       -6.86582
H         -3.95769       -3.14182       -8.07144
H         -2.32639       -2.49557       -7.77846
H         -5.29736       -1.85134       -4.71878
H         -5.77713       -2.79838       -6.14556
H         -4.67133       -3.48037       -4.94447

--Link1--
%chk=JID_8114.chk
%mem=8GB
%nprocshared=4
# B3LYP/6-311++G(d,p) empiricaldispersion=gd3bj scf=xqc pop=npa geom=check

CID_151292037_JID_8114_Energie_neutraal

0 1

--Link1--
%chk=JID_8114.chk
%mem=8GB
%nprocshared=4
# B3LYP/6-311++G(d,p) empiricaldispersion=gd3bj scf=xqc pop=npa geom=check

CID_151292037_JID_8114_Energie_kation

1 2

--Link1--
%chk=JID_8114.chk
%mem=8GB
%nprocshared=4
# B3LYP/6-311++G(d,p) empiricaldispersion=gd3bj scf=xqc pop=npa geom=check

CID_151292037_JID_8114_Energie_anion

-1 2
