%chk=JID_5609.chk
%mem=8GB
%nprocshared=4
# opt freq B3LYP/6-31G(d) empiricaldispersion=gd3bj scf=xqc

CID_104676527_JID_5609_neutraal

0 1
C          1.01962       -0.09767        0.00867
C          1.15700        0.15385       -1.48020
O          1.51059       -1.05739       -2.14760
C          2.93709       -1.33447       -2.26030
C          3.66724       -0.83413       -3.54235
C          3.56169       -2.25349       -4.12811
C          3.28215       -2.79016       -2.70701
O          4.31840       -3.55640       -2.03153
C          5.46887       -2.91593       -1.67207
C          6.55267       -2.83507       -2.53202
N          7.72376       -2.23881       -2.20756
C          7.81908       -1.73716       -0.95605
C          6.80222       -1.80930       -0.01530
C          5.60740       -2.42212       -0.38107
N          2.80650        0.06315       -4.31557
H          0.29818       -0.89896        0.19940
H          0.68784        0.80708        0.52581
H          1.97215       -0.41751        0.44268
H          0.19804        0.48618       -1.88982
H          1.89704        0.93634       -1.67901
H          3.44693       -1.02748       -1.34193
H          4.68537       -0.46819       -3.38232
H          2.72478       -2.43074       -4.81602
H          4.46976       -2.62131       -4.61321
H          2.38277       -3.42114       -2.71386
H          6.51383       -3.26175       -3.52867
H          8.76953       -1.26811       -0.71703
H          6.94102       -1.40466        0.98082
H          4.79527       -2.51457        0.33356
H          3.01015        0.08547       -5.31338
H          1.81261       -0.16304       -4.22690

--Link1--
%chk=JID_5609.chk
%mem=8GB
%nprocshared=4
# B3LYP/6-311++G(d,p) empiricaldispersion=gd3bj scf=xqc pop=npa geom=check

CID_104676527_JID_5609_Energie_neutraal

0 1

--Link1--
%chk=JID_5609.chk
%mem=8GB
%nprocshared=4
# B3LYP/6-311++G(d,p) empiricaldispersion=gd3bj scf=xqc pop=npa geom=check

CID_104676527_JID_5609_Energie_kation

1 2

--Link1--
%chk=JID_5609.chk
%mem=8GB
%nprocshared=4
# B3LYP/6-311++G(d,p) empiricaldispersion=gd3bj scf=xqc pop=npa geom=check

CID_104676527_JID_5609_Energie_anion

-1 2
