%chk=JID_8436.chk
%mem=8GB
%nprocshared=4
# opt freq B3LYP/6-31G(d) empiricaldispersion=gd3bj scf=xqc

CID_61755107_JID_8436_neutraal

0 1
C          0.95554        0.08867        0.01268
C          0.14348        1.20081        0.66520
C          0.67696        2.60356        0.35758
N          0.52875        2.92939       -1.05958
C          1.18925        4.20290       -1.41930
C          2.73158        4.04236       -1.52711
O          3.05726        2.82449       -2.22002
C          4.46254        2.63445       -2.30655
C          0.63467        4.76280       -2.72846
C          0.48723        6.15371       -2.87553
C          0.01678        6.69811       -4.07091
C         -0.29092        5.86368       -5.14870
C         -0.16243        4.48504       -5.01716
C          0.30618        3.93851       -3.81912
O         -0.72643        6.33109       -6.36234
C         -0.47904        7.73456       -6.49688
C         -0.89572        8.47708       -5.23803
O         -0.10283        8.06423       -4.11917
H          0.86207        0.10522       -1.07714
H          0.59889       -0.88682        0.35891
H          2.01584        0.17241        0.27141
H         -0.90528        1.11777        0.35546
H          0.16334        1.05386        1.75189
H          0.11299        3.32904        0.95534
H          1.72452        2.65649        0.67392
H          1.00770        2.21355       -1.61326
H          0.96768        4.94686       -0.64209
H          3.18112        4.89335       -2.05306
H          3.16446        3.99193       -0.52101
H          4.92835        3.45798       -2.85581
H          4.89886        2.55265       -1.30634
H          4.65099        1.70245       -2.84594
H          0.73212        6.82378       -2.05500
H         -0.41156        3.83276       -5.84940
H          0.41642        2.85925       -3.74456
H         -1.05609        8.09212       -7.35541
H          0.58590        7.88132       -6.71619
H         -0.74815        9.55370       -5.36877
H         -1.95231        8.30316       -4.99974

--Link1--
%chk=JID_8436.chk
%mem=8GB
%nprocshared=4
# B3LYP/6-311++G(d,p) empiricaldispersion=gd3bj scf=xqc pop=npa geom=check

CID_61755107_JID_8436_Energie_neutraal

0 1

--Link1--
%chk=JID_8436.chk
%mem=8GB
%nprocshared=4
# B3LYP/6-311++G(d,p) empiricaldispersion=gd3bj scf=xqc pop=npa geom=check

CID_61755107_JID_8436_Energie_kation

1 2

--Link1--
%chk=JID_8436.chk
%mem=8GB
%nprocshared=4
# B3LYP/6-311++G(d,p) empiricaldispersion=gd3bj scf=xqc pop=npa geom=check

CID_61755107_JID_8436_Energie_anion

-1 2
