%chk=JID_5429.chk
%mem=8GB
%nprocshared=4
# opt freq B3LYP/6-31G(d) empiricaldispersion=gd3bj scf=xqc

CID_127444809_JID_5429_neutraal

0 1
C          1.03238        0.06276        0.07080
C          1.09213       -0.98120        1.18181
C          1.44938       -0.50778        2.60593
C          0.46247        0.47628        3.23565
C          0.99895        1.84420        2.83926
N          2.42118        1.67043        2.68158
C          2.76984        0.25498        2.69650
C          3.40946        2.57372        2.52649
O          4.59113        2.21367        2.48741
N          3.22851        3.89559        2.38851
C          2.19071        4.93332        2.36589
C          0.79945        4.83796        1.70708
C          1.41158        5.26446        0.36321
C          2.53002        5.93557        1.19996
C          1.77366        4.11762       -0.57064
H          0.19229        0.74708        0.21300
H          0.87960       -0.43494       -0.89290
H          1.95880        0.63881        0.00088
H          0.12570       -1.49932        1.21897
H          1.83122       -1.73706        0.88604
H          1.50770       -1.41204        3.22498
H          0.50154        0.37688        4.32788
H         -0.57436        0.32244        2.92291
H          0.59713        2.09733        1.86209
H          0.77127        2.62380        3.57007
H          3.26672        0.05382        3.65350
H          3.46945        0.01020        1.89011
H          4.17484        4.26349        2.32355
H          2.15564        5.41864        3.34887
H          0.11482        5.60238        2.10742
H          0.21919        3.92705        1.69481
H          0.79101        5.98790       -0.18022
H          3.53392        5.87987        0.76668
H          2.32349        6.98344        1.44932
H          0.86602        3.61680       -0.92552
H          2.31547        4.48917       -1.44520
H          2.39661        3.35984       -0.08898

--Link1--
%chk=JID_5429.chk
%mem=8GB
%nprocshared=4
# B3LYP/6-311++G(d,p) empiricaldispersion=gd3bj scf=xqc pop=npa geom=check

CID_127444809_JID_5429_Energie_neutraal

0 1

--Link1--
%chk=JID_5429.chk
%mem=8GB
%nprocshared=4
# B3LYP/6-311++G(d,p) empiricaldispersion=gd3bj scf=xqc pop=npa geom=check

CID_127444809_JID_5429_Energie_kation

1 2

--Link1--
%chk=JID_5429.chk
%mem=8GB
%nprocshared=4
# B3LYP/6-311++G(d,p) empiricaldispersion=gd3bj scf=xqc pop=npa geom=check

CID_127444809_JID_5429_Energie_anion

-1 2
