%chk=JID_4351.chk
%mem=8GB
%nprocshared=4
# opt freq B3LYP/6-31G(d) empiricaldispersion=gd3bj scf=xqc

CID_79638822_JID_4351_neutraal

0 1
C          1.03834        0.03022       -0.08727
C          0.09565       -0.57212        0.94750
C          0.64930       -0.52336        2.37701
N          0.69237        0.84645        2.89935
C          1.59670        1.03939        4.06581
C          1.19083        0.19745        5.29294
C          0.22109        1.06860        6.07216
C          0.76139        2.49363        5.92570
C          1.42770        2.51279        4.53454
N          1.65798        3.00198        6.98062
C          0.93113        3.29445        8.21830
C          2.83891        2.19649        7.27664
C          3.02536        0.79446        3.72257
N          4.13505        0.59556        3.44464
H          1.16045        1.10791        0.05372
H          0.63820       -0.12778       -1.09404
H          2.02606       -0.43909       -0.03899
H         -0.87671       -0.06753        0.89852
H         -0.08142       -1.62168        0.68232
H         -0.00921       -1.12710        3.01053
H          1.63724       -0.99680        2.37929
H          0.99371        1.48352        2.16088
H          0.73514       -0.76539        5.04341
H          2.06119       -0.04736        5.91256
H          0.11663        0.73960        7.11005
H         -0.77557        1.00898        5.61640
H         -0.09325        3.18245        5.87996
H          2.37297        3.07100        4.53539
H          0.77809        3.07764        3.85017
H          0.54132        2.39019        8.69759
H          1.58571        3.80367        8.93516
H          0.09418        3.97549        8.02921
H          2.58595        1.23465        7.73440
H          3.44012        2.01589        6.38140
H          3.49655        2.73132        7.97196

--Link1--
%chk=JID_4351.chk
%mem=8GB
%nprocshared=4
# B3LYP/6-311++G(d,p) empiricaldispersion=gd3bj scf=xqc pop=npa geom=check

CID_79638822_JID_4351_Energie_neutraal

0 1

--Link1--
%chk=JID_4351.chk
%mem=8GB
%nprocshared=4
# B3LYP/6-311++G(d,p) empiricaldispersion=gd3bj scf=xqc pop=npa geom=check

CID_79638822_JID_4351_Energie_kation

1 2

--Link1--
%chk=JID_4351.chk
%mem=8GB
%nprocshared=4
# B3LYP/6-311++G(d,p) empiricaldispersion=gd3bj scf=xqc pop=npa geom=check

CID_79638822_JID_4351_Energie_anion

-1 2
