%chk=JID_5598.chk
%mem=8GB
%nprocshared=4
# opt=(cartesian,calcfc,maxcycle=500) freq B3LYP/6-31G(d) empiricaldispersion=gd3bj scf=xqc

CID_125450486_JID_5598_neutraal

0 1
6	4.410354	 -1.040044	 1.319609
6	4.282170	 -1.051512	 -0.197976
8	3.735401	 0.173266	 -0.700457
6	2.387921	 0.367446	 -0.473880
6	1.418934	 -0.485085	 -1.008931
6	0.064418	 -0.236139	 -0.807047
6	-0.353608	 0.880923	 -0.064349
6	0.627657	 1.737767	 0.461044
6	1.980726	 1.482935	 0.259681
7	-1.703427	 1.189336	 0.116210
6	-2.759479	 0.272779	 0.119069
6	-2.749941	 -1.092392	 0.373205
7	-4.047336	 -1.497210	 0.267333
7	-4.901823	 -0.499065	 -0.022691
6	-4.124043	 0.578578	 -0.124293
1	5.048422	 -0.211177	 1.642530
1	4.850377	 -1.979318	 1.674216
1	3.428344	 -0.920888	 1.789981
1	5.262664	 -1.139440	 -0.675878
1	3.671577	 -1.903887	 -0.526535
1	1.724077	 -1.336805	 -1.609580
1	-0.674526	 -0.887832	 -1.258902
1	0.323812	 2.608807	 1.037772
1	2.737199	 2.144770	 0.669065
1	-1.886342	 2.062179	 0.590319
1	-1.947605	 -1.772567	 0.611275
1	-4.407102	 -2.434570	 0.357704
1	-4.556661	 1.541640	 -0.361082

--Link1--
%chk=JID_5598.chk
%mem=8GB
%nprocshared=4
# B3LYP/6-311++G(d,p) empiricaldispersion=gd3bj scf=xqc pop=npa geom=check

CID_125450486_JID_5598_Energie_neutraal

0 1

--Link1--
%chk=JID_5598.chk
%mem=8GB
%nprocshared=4
# B3LYP/6-311++G(d,p) empiricaldispersion=gd3bj scf=xqc pop=npa geom=check

CID_125450486_JID_5598_Energie_kation

1 2

--Link1--
%chk=JID_5598.chk
%mem=8GB
%nprocshared=4
# B3LYP/6-311++G(d,p) empiricaldispersion=gd3bj scf=xqc pop=npa geom=check

CID_125450486_JID_5598_Energie_anion

-1 2
