%chk=JID_2663.chk
%mem=8GB
%nprocshared=4
# opt freq B3LYP/6-31G(d) empiricaldispersion=gd3bj scf=xqc

CID_107762896_JID_2663_neutraal

0 1
C          1.09860        0.00865        0.01423
C          1.39302        1.39474        0.56108
C          1.37919        2.50688       -0.49096
C          0.11989        2.60620       -1.35930
C         -1.20753        2.76776       -0.61822
S         -1.36358        4.37352        0.23954
C         -1.37450        3.82148        1.98119
C         -2.56921        2.92617        2.33681
C         -2.14442        1.58722        2.97854
C         -1.50998        1.80094        4.35687
N         -3.34144        0.73935        3.06686
C         -3.02955       -0.67454        3.21949
H          0.07180       -0.07055       -0.35418
H          1.22455       -0.74043        0.80268
H          1.78081       -0.24304       -0.80382
H          0.68083        1.61785        1.35808
H          2.38316        1.38240        1.03291
H          1.55647        3.46480        0.01212
H          2.23610        2.35831       -1.16088
H          0.24750        3.43755       -2.06499
H          0.05333        1.70519       -1.98214
H         -2.01921        2.73150       -1.35321
H         -1.37185        1.93230        0.06512
H         -0.41267        3.34802        2.18804
H         -1.41308        4.72700        2.59660
H         -3.22138        3.47074        3.03350
H         -3.18576        2.72262        1.45172
H         -1.41419        1.10813        2.31636
H         -2.21558        2.26710        5.05341
H         -1.17837        0.85435        4.79548
H         -0.62863        2.44673        4.29434
H         -3.93623        1.04728        3.83592
H         -2.51868       -0.88588        4.16306
H         -3.95922       -1.25209        3.20952
H         -2.41403       -1.03659        2.38930

--Link1--
%chk=JID_2663.chk
%mem=8GB
%nprocshared=4
# B3LYP/6-311++G(d,p) empiricaldispersion=gd3bj scf=xqc pop=npa geom=check

CID_107762896_JID_2663_Energie_neutraal

0 1

--Link1--
%chk=JID_2663.chk
%mem=8GB
%nprocshared=4
# B3LYP/6-311++G(d,p) empiricaldispersion=gd3bj scf=xqc pop=npa geom=check

CID_107762896_JID_2663_Energie_kation

1 2

--Link1--
%chk=JID_2663.chk
%mem=8GB
%nprocshared=4
# B3LYP/6-311++G(d,p) empiricaldispersion=gd3bj scf=xqc pop=npa geom=check

CID_107762896_JID_2663_Energie_anion

-1 2
