%chk=JID_7037.chk
%mem=8GB
%nprocshared=4
# opt freq B3LYP/6-31G(d) empiricaldispersion=gd3bj scf=xqc

CID_129863400_JID_7037_neutraal

0 1
C          0.91489       -0.05234        0.00402
C          1.14983        1.43766       -0.19516
C          0.74592        1.95021       -1.58102
C         -0.71537        1.70277       -1.95398
C         -1.68097        2.49223       -1.08450
O         -1.52586        3.69267       -0.86668
C         -2.83045        1.76777       -0.46530
C         -3.12963        1.96277        0.89804
C         -4.20838        1.26443        1.45254
C         -4.95657        0.37316        0.68133
C         -4.67647        0.16155       -0.68048
C         -3.62463        0.90223       -1.24850
O         -3.35630        0.83286       -2.58958
C         -5.53198       -0.86585       -1.41060
C         -6.60765       -0.20775       -2.27704
C         -4.72281       -1.90361       -2.19506
C         -2.36182        2.91470        1.77388
H         -0.15207       -0.29229        0.02674
H          1.34304       -0.37409        0.95893
H          1.38740       -0.63543       -0.79256
H          0.61865        1.99485        0.58269
H          2.21692        1.64542       -0.05009
H          0.96487        3.02385       -1.63192
H          1.38181        1.46738       -2.33343
H         -0.88314        2.02132       -2.98972
H         -0.92722        0.63102       -1.90888
H         -4.47185        1.40150        2.50004
H         -5.77328       -0.16169        1.16480
H         -4.17472        0.62371       -3.06467
H         -6.06868       -1.44680       -0.64679
H         -6.18691        0.36359       -3.10906
H         -7.27381       -0.96653       -2.70208
H         -7.22127        0.47862       -1.68283
H         -3.93352       -2.33823       -1.57169
H         -5.37471       -2.72060       -2.52442
H         -4.25412       -1.48961       -3.09174
H         -1.28454        2.75851        1.67459
H         -2.61202        3.94945        1.52028
H         -2.60336        2.76414        2.83195

--Link1--
%chk=JID_7037.chk
%mem=8GB
%nprocshared=4
# B3LYP/6-311++G(d,p) empiricaldispersion=gd3bj scf=xqc pop=npa geom=check

CID_129863400_JID_7037_Energie_neutraal

0 1

--Link1--
%chk=JID_7037.chk
%mem=8GB
%nprocshared=4
# B3LYP/6-311++G(d,p) empiricaldispersion=gd3bj scf=xqc pop=npa geom=check

CID_129863400_JID_7037_Energie_kation

1 2

--Link1--
%chk=JID_7037.chk
%mem=8GB
%nprocshared=4
# B3LYP/6-311++G(d,p) empiricaldispersion=gd3bj scf=xqc pop=npa geom=check

CID_129863400_JID_7037_Energie_anion

-1 2
