%chk=JID_9687.chk
%mem=8GB
%nprocshared=4
# opt freq B3LYP/6-31G(d) empiricaldispersion=gd3bj scf=xqc

CID_152592407_JID_9687_neutraal

0 1
C          1.06058       -0.07880       -0.01097
C          0.79498       -1.11668       -1.11577
C          1.47384       -2.43545       -0.67967
C         -0.71582       -1.37364       -1.22433
C          1.42890       -0.68821       -2.47799
C          0.68897        0.36757       -3.34623
C          0.82012        1.73670       -2.72213
O          1.81689        2.43470       -2.70001
O         -0.32570        2.16770       -2.16222
C          1.10986        0.40524       -4.86563
C          0.23667       -0.57790       -5.62774
O         -0.38825       -0.36717       -6.65628
O          0.18290       -1.81387       -5.08524
C          0.87990        1.77327       -5.49139
O          1.63295        2.37954       -6.23689
O         -0.33635        2.29784       -5.22153
C          2.57703        0.07214       -5.04127
O          3.50454        0.49441       -4.36804
O          2.85696       -0.74616       -6.07568
H          0.74348       -0.45816        0.96772
H          0.51470        0.85175       -0.17733
H          2.12703        0.16207        0.05984
H          1.09588       -2.77697        0.29089
H          1.28691       -3.23590       -1.40470
H          2.55877       -2.31054       -0.58952
H         -1.27571       -0.44752       -1.38899
H         -0.94165       -2.06057       -2.04732
H         -1.10713       -1.82008       -0.30272
H          2.44870       -0.33982       -2.26900
H          1.54667       -1.59796       -3.07827
H         -0.38229        0.12798       -3.33739
H         -0.10312        3.05390       -1.80610
H         -0.36460       -2.32950       -5.71730
H         -0.36595        3.12054       -5.75820
H          3.83870       -0.78472       -6.09079

--Link1--
%chk=JID_9687.chk
%mem=8GB
%nprocshared=4
# B3LYP/6-311++G(d,p) empiricaldispersion=gd3bj scf=xqc pop=npa geom=check

CID_152592407_JID_9687_Energie_neutraal

0 1

--Link1--
%chk=JID_9687.chk
%mem=8GB
%nprocshared=4
# B3LYP/6-311++G(d,p) empiricaldispersion=gd3bj scf=xqc pop=npa geom=check

CID_152592407_JID_9687_Energie_kation

1 2

--Link1--
%chk=JID_9687.chk
%mem=8GB
%nprocshared=4
# B3LYP/6-311++G(d,p) empiricaldispersion=gd3bj scf=xqc pop=npa geom=check

CID_152592407_JID_9687_Energie_anion

-1 2
