%chk=JID_3605.chk
%mem=8GB
%nprocshared=4
# opt freq B3LYP/6-31G(d) empiricaldispersion=gd3bj scf=xqc

CID_62517576_JID_3605_neutraal

0 1
C          0.94766       -0.02330        0.08196
C          0.05794       -0.95554       -0.72217
C          0.27239       -2.44083       -0.40803
C          0.04152       -2.84609        1.06576
N         -1.36705       -2.62218        1.43898
C         -1.77824       -3.24001        2.71531
C         -3.28268       -2.95159        2.90870
C         -3.78936       -4.05486        3.83861
C         -2.79187       -5.20619        3.71206
C         -1.79778       -4.77686        2.63665
C         -0.98963       -2.69503        3.94818
O          0.36185       -3.14262        3.99993
O         -0.63614       -3.19236       -1.22535
H          0.68777       -0.03812        1.14446
H          0.82947        1.00605       -0.27165
H          2.00190       -0.29807       -0.02270
H         -0.99366       -0.67921       -0.57837
H          0.24955       -0.79698       -1.79137
H          1.28744       -2.73048       -0.70248
H          0.27851       -3.91220        1.15175
H          0.72217       -2.28822        1.71404
H         -1.52254       -1.61419        1.49802
H         -3.48093       -1.95244        3.31205
H         -3.82151       -3.02834        1.95410
H         -4.80164       -4.36615        3.56044
H         -3.83049       -3.70306        4.87551
H         -3.28610       -6.14676        3.44910
H         -2.27801       -5.36205        4.66761
H         -2.17372       -5.10657        1.65831
H         -0.81970       -5.24540        2.77829
H         -0.97225       -1.59916        3.92461
H         -1.46236       -2.97806        4.89456
H          0.34964       -4.09747        4.18113
H         -1.45732       -3.24404       -0.69395

--Link1--
%chk=JID_3605.chk
%mem=8GB
%nprocshared=4
# B3LYP/6-311++G(d,p) empiricaldispersion=gd3bj scf=xqc pop=npa geom=check

CID_62517576_JID_3605_Energie_neutraal

0 1

--Link1--
%chk=JID_3605.chk
%mem=8GB
%nprocshared=4
# B3LYP/6-311++G(d,p) empiricaldispersion=gd3bj scf=xqc pop=npa geom=check

CID_62517576_JID_3605_Energie_kation

1 2

--Link1--
%chk=JID_3605.chk
%mem=8GB
%nprocshared=4
# B3LYP/6-311++G(d,p) empiricaldispersion=gd3bj scf=xqc pop=npa geom=check

CID_62517576_JID_3605_Energie_anion

-1 2
