%chk=JID_5085.chk
%mem=8GB
%nprocshared=4
# opt freq B3LYP/6-31G(d) empiricaldispersion=gd3bj scf=xqc

CID_115560462_JID_5085_neutraal

0 1
C         -1.65000        0.08400        0.71500
C         -1.12062        1.30259       -0.02506
C         -0.09316        0.76933       -1.03656
C          1.35559        0.89282       -0.57386
N          1.56838       -0.32978        0.19236
C          0.89760       -1.40880       -0.51710
C         -0.34527       -0.74834       -1.13464
C         -1.63523       -0.99611       -0.35097
C          2.94446       -0.47950        0.65060
C          3.24529       -1.87435        1.23536
C          4.67919       -1.68949        0.69089
C          4.07514       -0.72360       -0.38177
C          3.84444       -1.26625       -1.80813
O          3.56768       -0.62847       -2.81882
O          4.01873       -2.60525       -1.94209
H         -2.65143        0.25125        1.12210
H         -0.98662       -0.18186        1.54556
H         -1.94612        1.77489       -0.57239
H         -0.71202        2.05412        0.65735
H         -0.22662        1.27143       -2.00138
H          1.52359        1.79253        0.02730
H          2.01344        0.94334       -1.44772
H          0.62389       -2.22928        0.15379
H          1.49645       -1.82814       -1.32651
H         -0.45981       -1.07499       -2.17446
H         -1.69721       -2.00236        0.07366
H         -2.49694       -0.86250       -1.01693
H          3.21842        0.31753        1.35893
H          3.16447       -1.95833        2.32282
H          2.74244       -2.73507        0.78256
H          5.16724       -2.59921        0.33220
H          5.35885       -1.19133        1.39358
H          4.70341        0.17655       -0.47771
H          3.86097       -2.76106       -2.89694

--Link1--
%chk=JID_5085.chk
%mem=8GB
%nprocshared=4
# B3LYP/6-311++G(d,p) empiricaldispersion=gd3bj scf=xqc pop=npa geom=check

CID_115560462_JID_5085_Energie_neutraal

0 1

--Link1--
%chk=JID_5085.chk
%mem=8GB
%nprocshared=4
# B3LYP/6-311++G(d,p) empiricaldispersion=gd3bj scf=xqc pop=npa geom=check

CID_115560462_JID_5085_Energie_kation

1 2

--Link1--
%chk=JID_5085.chk
%mem=8GB
%nprocshared=4
# B3LYP/6-311++G(d,p) empiricaldispersion=gd3bj scf=xqc pop=npa geom=check

CID_115560462_JID_5085_Energie_anion

-1 2
