%chk=JID_5925.chk
%mem=8GB
%nprocshared=4
# opt freq B3LYP/6-31G(d) empiricaldispersion=gd3bj scf=xqc

CID_28830387_JID_5925_neutraal

0 1
C          0.95330       -0.08648        0.01842
O          1.63739       -1.27705        0.40135
C          1.49925       -2.25869       -0.54712
C          0.25407       -2.84827       -0.77927
C          0.13827       -3.88572       -1.70361
C          1.26788       -4.34673       -2.37768
C          2.51632       -3.77300       -2.12705
C          2.64706       -2.71802       -1.21126
C          4.00369       -2.11648       -0.93264
N          4.63563       -2.75493        0.22224
C          5.77860       -1.98848        0.72829
C          5.40191       -0.77872        1.58465
C          5.02504       -1.15983        2.98765
O          5.54416       -0.73503        4.00719
O          3.97463       -1.99806        3.05231
H         -0.12921       -0.19967        0.13529
H          1.19998        0.20750       -1.00825
H          1.28067        0.71598        0.68638
H         -0.62235       -2.52091       -0.22850
H         -0.82878       -4.34729       -1.88460
H          1.18105       -5.16553       -3.08739
H          3.39397       -4.15988       -2.64033
H          4.64518       -2.24022       -1.81411
H          3.88645       -1.03502       -0.79755
H          3.93514       -2.82375        0.96937
H          6.39523       -2.67186        1.32423
H          6.40581       -1.66590       -0.11182
H          6.27785       -0.12244        1.65834
H          4.59613       -0.17773        1.15194
H          3.82029       -2.12654        4.01148

--Link1--
%chk=JID_5925.chk
%mem=8GB
%nprocshared=4
# B3LYP/6-311++G(d,p) empiricaldispersion=gd3bj scf=xqc pop=npa geom=check

CID_28830387_JID_5925_Energie_neutraal

0 1

--Link1--
%chk=JID_5925.chk
%mem=8GB
%nprocshared=4
# B3LYP/6-311++G(d,p) empiricaldispersion=gd3bj scf=xqc pop=npa geom=check

CID_28830387_JID_5925_Energie_kation

1 2

--Link1--
%chk=JID_5925.chk
%mem=8GB
%nprocshared=4
# B3LYP/6-311++G(d,p) empiricaldispersion=gd3bj scf=xqc pop=npa geom=check

CID_28830387_JID_5925_Energie_anion

-1 2
