%chk=JID_5447.chk
%mem=8GB
%nprocshared=4
# opt freq B3LYP/6-31G(d) empiricaldispersion=gd3bj scf=xqc

CID_14398684_JID_5447_neutraal

0 1
C          0.90652        0.03392       -0.01054
C          0.42678       -1.40392        0.21356
C          1.02562       -2.05891        1.49064
C          0.60174       -1.47283        2.82564
C          1.33952       -0.41656        3.38711
C          0.96324        0.15457        4.60491
C         -0.15411       -0.32339        5.28369
C         -0.89394       -1.37292        4.74626
C         -0.51918       -1.94404        3.52766
O          0.82091       -3.47912        1.47789
N         -1.03011       -1.52579        0.11963
C         -1.68205       -2.49026       -0.61181
C         -3.03785       -2.29972       -0.46334
C         -3.21505       -1.17791        0.37730
C         -1.96229       -0.71580        0.71589
H          0.56420        0.71531        0.77421
H          0.53288        0.42116       -0.96523
H          2.00049        0.07513       -0.03904
H          0.80407       -1.98670       -0.63972
H          2.11661       -1.95314        1.42720
H          2.22034       -0.02861        2.87961
H          1.54466        0.97112        5.02521
H         -0.44695        0.11878        6.23217
H         -1.76593       -1.75007        5.27457
H         -1.12257       -2.75802        3.13374
H         -0.13417       -3.63502        1.37580
H         -1.13423       -3.23247       -1.17888
H         -3.81497       -2.90119       -0.91708
H         -4.15417       -0.74824        0.70116
H         -1.67215        0.11635        1.34487

--Link1--
%chk=JID_5447.chk
%mem=8GB
%nprocshared=4
# B3LYP/6-311++G(d,p) empiricaldispersion=gd3bj scf=xqc pop=npa geom=check

CID_14398684_JID_5447_Energie_neutraal

0 1

--Link1--
%chk=JID_5447.chk
%mem=8GB
%nprocshared=4
# B3LYP/6-311++G(d,p) empiricaldispersion=gd3bj scf=xqc pop=npa geom=check

CID_14398684_JID_5447_Energie_kation

1 2

--Link1--
%chk=JID_5447.chk
%mem=8GB
%nprocshared=4
# B3LYP/6-311++G(d,p) empiricaldispersion=gd3bj scf=xqc pop=npa geom=check

CID_14398684_JID_5447_Energie_anion

-1 2
