%chk=JID_6891.chk
%mem=8GB
%nprocshared=4
# opt=(cartesian,calcfc) freq B3LYP/6-31G(d) empiricaldispersion=gd3bj scf=xqc

CID_80915407_JID_6891_neutraal

0 1
6	-3.795348	 -1.972564	 -0.857501
6	-2.543202	 -1.250668	 -0.438841
6	-1.311055	 -1.878364	 -0.432076
6	-0.201876	 -1.123999	 0.029042
7	-0.342422	 0.146197	 0.425484
6	-1.584533	 0.654105	 0.344595
7	-2.702584	 0.035279	 -0.052788
7	-1.692031	 1.982090	 0.694059
7	-2.945622	 2.576644	 0.950255
7	1.038631	 -1.682756	 0.081471
6	2.248206	 -1.042633	 0.596998
6	3.016055	 -2.042380	 1.463920
6	3.120886	 -0.484501	 -0.542170
6	2.503616	 0.734538	 -1.211848
8	2.494525	 1.785715	 -0.264001
6	1.693812	 2.875808	 -0.665052
1	-4.404638	 -2.212515	 0.022896
1	-4.401489	 -1.329230	 -1.502445
1	-3.570717	 -2.904769	 -1.383594
1	-1.198408	 -2.910966	 -0.745814
1	-0.939120	 2.335376	 1.268504
1	-3.367108	 2.776000	 0.043209
1	-3.548935	 1.859174	 1.360255
1	1.127244	 -2.626392	 -0.267374
1	1.912383	 -0.201585	 1.205626
1	3.358968	 -2.900839	 0.870208
1	3.901265	 -1.570238	 1.901549
1	2.385733	 -2.418631	 2.276418
1	4.099805	 -0.196836	 -0.139328
1	3.294453	 -1.269408	 -1.290813
1	3.088328	 1.027361	 -2.101107
1	1.479555	 0.510882	 -1.545117
1	2.069166	 3.337714	 -1.593526
1	0.648101	 2.572101	 -0.815662
1	1.738043	 3.618837	 0.136353

--Link1--
%chk=JID_6891.chk
%mem=8GB
%nprocshared=4
# B3LYP/6-311++G(d,p) empiricaldispersion=gd3bj scf=xqc pop=npa geom=check

CID_80915407_JID_6891_Energie_neutraal

0 1

--Link1--
%chk=JID_6891.chk
%mem=8GB
%nprocshared=4
# B3LYP/6-311++G(d,p) empiricaldispersion=gd3bj scf=xqc pop=npa geom=check

CID_80915407_JID_6891_Energie_kation

1 2

--Link1--
%chk=JID_6891.chk
%mem=8GB
%nprocshared=4
# B3LYP/6-311++G(d,p) empiricaldispersion=gd3bj scf=xqc pop=npa geom=check

CID_80915407_JID_6891_Energie_anion

-1 2
