%chk=JID_6419.chk
%mem=8GB
%nprocshared=4
# opt freq B3LYP/6-31G(d) empiricaldispersion=gd3bj scf=xqc

CID_141939360_JID_6419_neutraal

0 1
C          1.04920       -0.01391        0.08594
C          1.55308        1.40786       -0.01475
C          3.80226       -0.11095       -2.95725
C          2.65452        0.35584       -3.82378
C         -1.70614        0.40709       -2.46368
C         -2.14627       -0.85361       -3.18992
C         -1.46678       -2.12503       -2.67444
C         -1.85896       -2.54181       -1.25093
N         -3.30254       -2.75026       -1.05875
C         -3.94280       -3.86613       -1.77857
C         -3.52593       -5.25360       -1.27846
C         -4.08162       -5.63062        0.09465
N         -5.50609       -5.94526        0.03910
C         -3.97493       -1.86996       -0.21321
O         -3.40170       -0.98913        0.42992
C         -5.47037       -2.01009       -0.09525
H          0.00782       -0.02715        0.42010
H          1.64716       -0.58344        0.80357
H          1.10845       -0.51515       -0.88428
H          2.59872        1.42385       -0.33542
H          0.96142        1.97526       -0.73921
H          1.48343        1.90940        0.95510
H          3.46354       -0.87042       -2.24637
H          4.22261        0.72645       -2.39241
H          4.59663       -0.54449       -3.57203
H          2.22977       -0.48242       -4.38397
H          1.86343        0.79591       -3.21014
H          2.99514        1.11112       -4.53826
H         -1.97216        0.37982       -1.40437
H         -2.19048        1.28362       -2.90582
H         -0.62406        0.54573       -2.54449
H         -3.23595       -0.95037       -3.13212
H         -1.90065       -0.73911       -4.25272
H         -1.69336       -2.94245       -3.36863
H         -0.37811       -1.99296       -2.71214
H         -1.34505       -3.47299       -0.99171
H         -1.48198       -1.79572       -0.54527
H         -5.03045       -3.77760       -1.74879
H         -3.67199       -3.77095       -2.83513
H         -3.85515       -6.00061       -2.01282
H         -2.43398       -5.33223       -1.24639
H         -3.55591       -6.52453        0.44842
H         -3.89866       -4.83821        0.82753
H         -5.81196       -6.27139        0.95647
H         -6.05180       -5.10816       -0.15221
H         -5.94353       -1.89832       -1.07386
H         -5.72780       -2.96720        0.35988
H         -5.85533       -1.21594        0.55265

--Link1--
%chk=JID_6419.chk
%mem=8GB
%nprocshared=4
# B3LYP/6-311++G(d,p) empiricaldispersion=gd3bj scf=xqc pop=npa geom=check

CID_141939360_JID_6419_Energie_neutraal

0 1

--Link1--
%chk=JID_6419.chk
%mem=8GB
%nprocshared=4
# B3LYP/6-311++G(d,p) empiricaldispersion=gd3bj scf=xqc pop=npa geom=check

CID_141939360_JID_6419_Energie_kation

1 2

--Link1--
%chk=JID_6419.chk
%mem=8GB
%nprocshared=4
# B3LYP/6-311++G(d,p) empiricaldispersion=gd3bj scf=xqc pop=npa geom=check

CID_141939360_JID_6419_Energie_anion

-1 2
