%chk=JID_3068.chk
%mem=8GB
%nprocshared=4
# opt freq B3LYP/6-31G(d) empiricaldispersion=gd3bj scf=xqc

CID_149538230_JID_3068_neutraal

0 1
C          0.98246        0.04844       -0.08571
C          0.04162       -0.15531        1.07518
O         -1.14904        0.14478        0.96025
C          0.64356       -0.66910        2.39001
C          1.51823       -1.92350        2.22369
C          0.56479       -3.10339        2.42088
C         -0.48872       -2.52636        3.29734
C         -0.43117       -1.18629        3.29746
C         -1.34480       -0.33912        4.07740
O         -2.28301       -0.77027        4.73046
O         -0.94822        0.95483        4.00165
C         -1.79852        1.85698        4.70888
O          0.00652       -3.47113        1.17453
H          0.53351        0.74406       -0.80065
H          1.16668       -0.90481       -0.58577
H          1.92136        0.48236        0.26749
H          1.22604        0.14028        2.84253
H          2.04285       -1.97188        1.26562
H          2.27556       -1.93284        3.01975
H          1.07044       -3.96300        2.86903
H         -1.20767       -3.11220        3.85418
H         -2.81688        1.81939        4.30924
H         -1.79304        1.62948        5.77956
H         -1.40956        2.86942        4.56899
H         -0.82533       -3.94513        1.34961

--Link1--
%chk=JID_3068.chk
%mem=8GB
%nprocshared=4
# B3LYP/6-311++G(d,p) empiricaldispersion=gd3bj scf=xqc pop=npa geom=check

CID_149538230_JID_3068_Energie_neutraal

0 1

--Link1--
%chk=JID_3068.chk
%mem=8GB
%nprocshared=4
# B3LYP/6-311++G(d,p) empiricaldispersion=gd3bj scf=xqc pop=npa geom=check

CID_149538230_JID_3068_Energie_kation

1 2

--Link1--
%chk=JID_3068.chk
%mem=8GB
%nprocshared=4
# B3LYP/6-311++G(d,p) empiricaldispersion=gd3bj scf=xqc pop=npa geom=check

CID_149538230_JID_3068_Energie_anion

-1 2
