%chk=JID_3479.chk
%mem=8GB
%nprocshared=4
# opt freq B3LYP/6-31G(d) empiricaldispersion=gd3bj scf=xqc

CID_130624115_JID_3479_neutraal

0 1
C         -1.66400       -1.54100       -0.03100
N         -0.46754       -0.71862        0.05209
C          0.76365       -1.31393       -0.13968
C          1.89955       -0.61021       -0.05333
C          1.88499        0.80637        0.26004
C          0.68923        1.39583        0.43447
C         -0.58706        0.63790        0.33465
O         -1.64836        1.23133        0.50854
N          3.06733        1.51334        0.38663
C          4.43890        1.07312        0.20008
C          4.87626        1.20450       -1.25704
C          4.98025        2.64416       -1.76396
N          6.04257        3.39559       -1.10037
H         -1.69062       -2.03884       -1.00558
H         -1.63271       -2.29286        0.76395
H         -2.57455       -0.94679        0.08360
H          0.77248       -2.37603       -0.36521
H          2.84392       -1.11305       -0.21847
H          0.58335        2.44548        0.67276
H          2.95567        2.50696        0.56956
H          5.08869        1.66777        0.85127
H          4.56223        0.03691        0.53307
H          5.85086        0.71391       -1.37612
H          4.17557        0.65984       -1.90199
H          5.20311        2.61789       -2.83656
H          4.02739        3.17133       -1.64793
H          6.14800        4.30033       -1.56045
H          5.77443        3.60714       -0.14046

--Link1--
%chk=JID_3479.chk
%mem=8GB
%nprocshared=4
# B3LYP/6-311++G(d,p) empiricaldispersion=gd3bj scf=xqc pop=npa geom=check

CID_130624115_JID_3479_Energie_neutraal

0 1

--Link1--
%chk=JID_3479.chk
%mem=8GB
%nprocshared=4
# B3LYP/6-311++G(d,p) empiricaldispersion=gd3bj scf=xqc pop=npa geom=check

CID_130624115_JID_3479_Energie_kation

1 2

--Link1--
%chk=JID_3479.chk
%mem=8GB
%nprocshared=4
# B3LYP/6-311++G(d,p) empiricaldispersion=gd3bj scf=xqc pop=npa geom=check

CID_130624115_JID_3479_Energie_anion

-1 2
