%chk=JID_3327.chk
%mem=8GB
%nprocshared=4
# opt freq B3LYP/6-31G(d) empiricaldispersion=gd3bj scf=xqc

CID_148031120_JID_3327_neutraal

0 1
C          0.94267        0.08100        0.01231
C         -0.12926        1.16068        0.05924
C          0.43857        2.55092       -0.09142
C          0.40386        3.45061        0.90686
C          0.95825        4.79038        0.78028
C          1.33414        5.27169       -0.42727
C          1.16675        4.41992       -1.67392
C          1.04471        2.90878       -1.42429
C          1.92329        6.63936       -0.68755
C          0.82112        7.62349       -0.99738
O          0.39853        7.82674       -2.13369
C          1.03890        5.61165        2.03297
O          1.15824        6.83079        2.05734
H          1.45057        0.06186       -0.95739
H          0.49158       -0.90381        0.17140
H          1.69651        0.23779        0.79108
H         -0.86570        0.98307       -0.73354
H         -0.67318        1.07006        1.00766
H         -0.04720        3.18383        1.86007
H          2.01124        4.57562       -2.35664
H          0.27065        4.77001       -2.20308
H          0.45316        2.47241       -2.23827
H          2.04256        2.45525       -1.48101
H          2.52503        7.01945        0.14187
H          2.60783        6.60896       -1.54345
H          0.36293        8.12233       -0.12644
H          0.94569        5.03474        2.96895

--Link1--
%chk=JID_3327.chk
%mem=8GB
%nprocshared=4
# B3LYP/6-311++G(d,p) empiricaldispersion=gd3bj scf=xqc pop=npa geom=check

CID_148031120_JID_3327_Energie_neutraal

0 1

--Link1--
%chk=JID_3327.chk
%mem=8GB
%nprocshared=4
# B3LYP/6-311++G(d,p) empiricaldispersion=gd3bj scf=xqc pop=npa geom=check

CID_148031120_JID_3327_Energie_kation

1 2

--Link1--
%chk=JID_3327.chk
%mem=8GB
%nprocshared=4
# B3LYP/6-311++G(d,p) empiricaldispersion=gd3bj scf=xqc pop=npa geom=check

CID_148031120_JID_3327_Energie_anion

-1 2
