%chk=JID_3215.chk
%mem=8GB
%nprocshared=4
# opt freq B3LYP/6-31G(d) empiricaldispersion=gd3bj scf=xqc

CID_139369214_JID_3215_neutraal

0 1
C          0.97380       -0.09650        0.00098
C          0.62376        1.39639       -0.12001
C          1.55392        2.02001       -1.16133
C         -0.91316        1.58493       -0.35688
C         -1.46770        3.00327       -0.08842
C         -1.38186        3.96880       -1.26621
C         -1.98378        3.36225       -2.53601
C         -1.37684        1.99773       -2.87170
C         -1.45728        1.03185       -1.69037
N         -1.92221        4.29712       -3.68273
C         -0.86730        4.62341       -4.08224
S          0.55205        5.07998       -4.64047
O          0.95631        1.96068        1.15753
H          0.84840       -0.63330       -0.94357
H          0.35610       -0.58396        0.76401
H          2.01331       -0.22589        0.32621
H          1.45575        1.54518       -2.14047
H          1.39375        3.09459       -1.26321
H          2.60043        1.91184       -0.84969
H         -1.37979        0.97198        0.43096
H         -2.53115        2.89741        0.16981
H         -1.00324        3.45651        0.79308
H         -0.34314        4.26908       -1.42415
H         -1.92050        4.89100       -1.01346
H         -3.05357        3.20183       -2.34297
H         -0.33816        2.10401       -3.19450
H         -1.90959        1.56237       -3.72669
H         -0.97356        0.08783       -1.95864
H         -2.51747        0.78462       -1.53944
H          1.07705        2.91919        1.04985

--Link1--
%chk=JID_3215.chk
%mem=8GB
%nprocshared=4
# B3LYP/6-311++G(d,p) empiricaldispersion=gd3bj scf=xqc pop=npa geom=check

CID_139369214_JID_3215_Energie_neutraal

0 1

--Link1--
%chk=JID_3215.chk
%mem=8GB
%nprocshared=4
# B3LYP/6-311++G(d,p) empiricaldispersion=gd3bj scf=xqc pop=npa geom=check

CID_139369214_JID_3215_Energie_kation

1 2

--Link1--
%chk=JID_3215.chk
%mem=8GB
%nprocshared=4
# B3LYP/6-311++G(d,p) empiricaldispersion=gd3bj scf=xqc pop=npa geom=check

CID_139369214_JID_3215_Energie_anion

-1 2
