%chk=JID_5955.chk
%mem=8GB
%nprocshared=4
# opt freq B3LYP/6-31G(d) empiricaldispersion=gd3bj scf=xqc

CID_110931672_JID_5955_neutraal

0 1
C          1.06803       -0.07162       -0.01557
C          0.21761        0.39690       -1.16349
O         -0.70507       -0.28187       -1.60849
N          0.48152        1.62471       -1.69794
C          1.71673        2.40066       -1.56526
C          1.41732        3.90318       -1.63491
C          1.04332        4.34688       -3.04897
C          2.06191        3.86731       -4.08503
N          2.25629        2.41951       -3.99404
C          2.72854        2.00408       -2.66763
C          2.99149        1.84012       -5.12066
C          4.29990        2.49579       -5.59351
C          5.49204        2.44300       -4.63581
C          5.91116        1.04091       -4.20877
O          6.29934        0.26242       -5.33054
H          0.66962       -1.01523        0.36901
H          1.04765        0.66310        0.79361
H          2.09410       -0.23992       -0.35208
H         -0.06119        1.79447       -2.53834
H          2.16028        2.18145       -0.58885
H          0.61207        4.16863       -0.93982
H          2.30984        4.45772       -1.31810
H          0.04880        3.96194       -3.30651
H          0.97322        5.44030       -3.08222
H          1.68613        4.13664       -5.07950
H          3.00850        4.40096       -3.93489
H          3.69615        2.45778       -2.43255
H          2.86045        0.91559       -2.64287
H          3.15352        0.76924       -4.94704
H          2.30597        1.86797       -5.97895
H          4.59088        2.01236       -6.53538
H          4.11312        3.54335       -5.85970
H          6.34065        2.91133       -5.15127
H          5.29553        3.05724       -3.75247
H          6.77585        1.10743       -3.54078
H          5.12045        0.51449       -3.66763
H          5.49501        0.00870       -5.81355

--Link1--
%chk=JID_5955.chk
%mem=8GB
%nprocshared=4
# B3LYP/6-311++G(d,p) empiricaldispersion=gd3bj scf=xqc pop=npa geom=check

CID_110931672_JID_5955_Energie_neutraal

0 1

--Link1--
%chk=JID_5955.chk
%mem=8GB
%nprocshared=4
# B3LYP/6-311++G(d,p) empiricaldispersion=gd3bj scf=xqc pop=npa geom=check

CID_110931672_JID_5955_Energie_kation

1 2

--Link1--
%chk=JID_5955.chk
%mem=8GB
%nprocshared=4
# B3LYP/6-311++G(d,p) empiricaldispersion=gd3bj scf=xqc pop=npa geom=check

CID_110931672_JID_5955_Energie_anion

-1 2
