%chk=JID_10583.chk
%mem=8GB
%nprocshared=4
# opt freq B3LYP/6-31G(d) empiricaldispersion=gd3bj scf=xqc

CID_154362841_JID_10583_neutraal

0 1
C          1.52000        0.00000        0.20800
C          0.72158       -1.22123       -0.23093
C         -0.68086       -1.21373        0.38759
O         -1.35385        0.01999        0.08516
C         -0.67947        1.21000        0.52870
C          0.73062        1.27143       -0.06798
C         -0.73826        1.34307        2.06464
C         -0.28013        2.68514        2.58269
C          0.93825        2.80409        3.26588
C          1.36956        4.04649        3.73307
C          0.58848        5.18083        3.52299
C         -0.62605        5.07372        2.84805
C         -1.05990        3.83190        2.38127
C         -1.56030       -2.35265       -0.15951
C         -1.08870       -3.73313        0.22632
C         -0.47120       -4.56381       -0.71848
C         -0.02014       -5.83408       -0.35653
C         -0.18272       -6.28632        0.95141
C         -0.79826       -5.46985        1.89819
C         -1.25006       -4.19927        1.53820
H          1.75660       -0.07422        1.27558
H          2.47536        0.03113       -0.32780
H          0.64030       -1.20626       -1.32539
H          1.26792       -2.12939        0.04506
H         -0.60816       -1.31621        1.47627
H         -1.25146        2.04021        0.09644
H          1.28156        2.14783        0.28774
H          0.63869        1.37910       -1.15695
H         -1.77011        1.17299        2.40086
H         -0.15922        0.54814        2.54846
H          1.56232        1.92986        3.43681
H          2.31605        4.12892        4.26105
H          0.92525        6.14803        3.88640
H         -1.23659        5.95798        2.68541
H         -2.01199        3.76500        1.85895
H         -2.59005       -2.22261        0.20080
H         -1.64096       -2.26692       -1.25149
H         -0.33508       -4.22538       -1.74331
H          0.45780       -6.47110       -1.09614
H          0.16793       -7.27590        1.23205
H         -0.92850       -5.82360        2.91755
H         -1.73251       -3.57555        2.28752

--Link1--
%chk=JID_10583.chk
%mem=8GB
%nprocshared=4
# B3LYP/6-311++G(d,p) empiricaldispersion=gd3bj scf=xqc pop=npa geom=check

CID_154362841_JID_10583_Energie_neutraal

0 1

--Link1--
%chk=JID_10583.chk
%mem=8GB
%nprocshared=4
# B3LYP/6-311++G(d,p) empiricaldispersion=gd3bj scf=xqc pop=npa geom=check

CID_154362841_JID_10583_Energie_kation

1 2

--Link1--
%chk=JID_10583.chk
%mem=8GB
%nprocshared=4
# B3LYP/6-311++G(d,p) empiricaldispersion=gd3bj scf=xqc pop=npa geom=check

CID_154362841_JID_10583_Energie_anion

-1 2
