%chk=JID_7412.chk
%mem=8GB
%nprocshared=4
# opt freq B3LYP/6-31G(d) empiricaldispersion=gd3bj scf=xqc

CID_82161168_JID_7412_neutraal

0 1
C          0.98543        0.03988       -0.09054
C          0.12272        1.21302       -0.51848
C          0.36142        1.66119       -1.96620
C          0.02777        0.62637       -3.06142
C         -1.36286        0.03423       -2.99226
C         -2.48523        0.80044       -3.32917
C         -3.77179        0.26804       -3.20223
C         -3.95732       -1.06985       -2.82196
C         -2.83727       -1.84405       -2.51340
C         -1.55279       -1.29426       -2.59198
O         -5.25454       -1.50715       -2.75060
C         -5.45941       -2.90495       -2.60219
O         -4.88168        1.01731       -3.50520
C         -5.01537        2.22077       -2.73185
C         -6.17146        3.00517       -3.34699
C         -5.31815        1.91357       -1.26494
O         -0.36212        2.87525       -2.19566
H          0.76120       -0.86228       -0.66457
H          0.81300       -0.18737        0.96639
H          2.04812        0.27056       -0.21611
H         -0.93546        0.97387       -0.35895
H          0.32656        2.06158        0.14747
H          1.41952        1.92679       -2.07846
H          0.13814        1.09641       -4.04771
H          0.76793       -0.18286       -3.02863
H         -2.35379        1.81101       -3.70672
H         -2.92811       -2.87750       -2.19643
H         -0.69978       -1.92151       -2.34136
H         -4.95998       -3.46880       -3.39735
H         -5.13622       -3.24511       -1.61312
H         -6.53376       -3.09601       -2.68404
H         -4.11510        2.84143       -2.80789
H         -7.10035        2.42467       -3.31483
H         -6.33219        3.95338       -2.82484
H         -5.96924        3.21810       -4.40227
H         -4.46952        1.41581       -0.78392
H         -5.52874        2.83004       -0.70471
H         -6.17596        1.23853       -1.17372
H         -1.26257        2.74563       -1.85105

--Link1--
%chk=JID_7412.chk
%mem=8GB
%nprocshared=4
# B3LYP/6-311++G(d,p) empiricaldispersion=gd3bj scf=xqc pop=npa geom=check

CID_82161168_JID_7412_Energie_neutraal

0 1

--Link1--
%chk=JID_7412.chk
%mem=8GB
%nprocshared=4
# B3LYP/6-311++G(d,p) empiricaldispersion=gd3bj scf=xqc pop=npa geom=check

CID_82161168_JID_7412_Energie_kation

1 2

--Link1--
%chk=JID_7412.chk
%mem=8GB
%nprocshared=4
# B3LYP/6-311++G(d,p) empiricaldispersion=gd3bj scf=xqc pop=npa geom=check

CID_82161168_JID_7412_Energie_anion

-1 2
