%chk=JID_4066.chk
%mem=8GB
%nprocshared=4
# opt freq B3LYP/6-31G(d) empiricaldispersion=gd3bj scf=xqc

CID_87483562_JID_4066_neutraal

0 1
C          0.90954       -0.02263       -0.03613
C          0.35849        1.34535        0.22911
C         -0.58665        1.90279       -0.54692
C          0.93733        2.04530        1.40718
O          1.88767        1.62554        2.04915
O          0.23638        3.15670        1.72044
C          0.76159        3.92562        2.79228
N          0.04850        3.77898        4.13891
C          0.36575        2.37362        4.67037
C          0.61668        4.78248        5.12409
C         -1.47749        3.88627        3.99508
C         -2.07209        5.29307        3.87648
C         -1.84961        6.04138        2.57191
O         -2.00058        5.15759        1.47701
H          0.44003       -0.49153       -0.90755
H          0.73738       -0.67782        0.82432
H          1.98663        0.02659       -0.22741
H         -0.98916        2.89525       -0.36769
H         -0.98931        1.37256       -1.40640
H          1.83317        3.75464        2.96369
H          0.68011        4.97606        2.50268
H          1.45190        2.24764        4.70873
H         -0.05478        2.28467        5.67706
H         -0.09361        1.63473        4.00815
H          0.51052        5.78834        4.70935
H          0.06854        4.69212        6.06650
H          1.67719        4.55978        5.27836
H         -1.78629        3.23714        3.16821
H         -1.88975        3.44338        4.91136
H         -3.15876        5.15909        3.97477
H         -1.78490        5.92589        4.72274
H         -2.58301        6.84986        2.48008
H         -0.85432        6.49037        2.53191
H         -2.16052        5.70133        0.68142

--Link1--
%chk=JID_4066.chk
%mem=8GB
%nprocshared=4
# B3LYP/6-311++G(d,p) empiricaldispersion=gd3bj scf=xqc pop=npa geom=check

CID_87483562_JID_4066_Energie_neutraal

0 1

--Link1--
%chk=JID_4066.chk
%mem=8GB
%nprocshared=4
# B3LYP/6-311++G(d,p) empiricaldispersion=gd3bj scf=xqc pop=npa geom=check

CID_87483562_JID_4066_Energie_kation

1 2

--Link1--
%chk=JID_4066.chk
%mem=8GB
%nprocshared=4
# B3LYP/6-311++G(d,p) empiricaldispersion=gd3bj scf=xqc pop=npa geom=check

CID_87483562_JID_4066_Energie_anion

-1 2
