%chk=JID_5226.chk
%mem=8GB
%nprocshared=4
# opt freq B3LYP/6-31G(d) empiricaldispersion=gd3bj scf=xqc

CID_25091946_JID_5226_neutraal

0 1
C          1.04293       -0.00121        0.09031
C          0.28216        0.22421       -1.21388
C          0.66323       -0.83128       -2.27491
C          0.04393       -2.21163       -2.08892
O         -1.00699       -2.48254       -2.68212
C          0.67777       -3.17954       -1.07188
C          0.23024       -4.59993       -1.32512
C          1.29047       -5.38366       -1.57551
C          2.49170       -4.59437       -1.49703
C          2.17339       -3.32467       -1.20637
C         -1.25403        0.31433       -1.04469
C         -1.86657        1.46948       -0.19830
C         -1.21556        2.82439       -0.51160
C         -3.36838        1.56161       -0.55507
C         -1.77628        1.18840        1.31189
H          0.56959       -0.76455        0.71334
H          1.09912        0.92382        0.67062
H          2.07788       -0.30378       -0.09970
H          0.63641        1.17948       -1.62246
H          0.32738       -0.47385       -3.25835
H          1.74996       -0.92180       -2.36821
H          0.39738       -2.87573       -0.05993
H         -0.80247       -4.91865       -1.32569
H          1.26563       -6.43898       -1.80202
H          3.48636       -4.99088       -1.63674
H          2.89116       -2.53127       -1.06147
H         -1.67200        0.39262       -2.05888
H         -1.62909       -0.63741       -0.64498
H         -1.24400        3.03650       -1.58611
H         -1.73760        3.64044        0.00142
H         -0.17078        2.85809       -0.18709
H         -3.88131        0.61475       -0.35100
H         -3.86965        2.34408        0.02614
H         -3.51103        1.79824       -1.61566
H         -2.16997        0.19507        1.55451
H         -0.75381        1.24649        1.68896
H         -2.36019        1.92082        1.88207

--Link1--
%chk=JID_5226.chk
%mem=8GB
%nprocshared=4
# B3LYP/6-311++G(d,p) empiricaldispersion=gd3bj scf=xqc pop=npa geom=check

CID_25091946_JID_5226_Energie_neutraal

0 1

--Link1--
%chk=JID_5226.chk
%mem=8GB
%nprocshared=4
# B3LYP/6-311++G(d,p) empiricaldispersion=gd3bj scf=xqc pop=npa geom=check

CID_25091946_JID_5226_Energie_kation

1 2

--Link1--
%chk=JID_5226.chk
%mem=8GB
%nprocshared=4
# B3LYP/6-311++G(d,p) empiricaldispersion=gd3bj scf=xqc pop=npa geom=check

CID_25091946_JID_5226_Energie_anion

-1 2
