%chk=JID_7840.chk
%mem=8GB
%nprocshared=4
# opt freq B3LYP/6-31G(d) empiricaldispersion=gd3bj scf=xqc

CID_80418914_JID_7840_neutraal

0 1
C          3.23100       -0.68400       -0.00400
C          1.81062       -0.17823       -0.05487
N          0.85310       -1.05648       -0.03409
N         -0.39488       -0.50052       -0.08069
C         -0.70863        0.84130       -0.15710
N         -2.01388        0.99150       -0.19467
N         -2.58015       -0.26149       -0.14647
C         -1.60779       -1.15050       -0.06187
C         -1.75214       -2.62845        0.04016
C         -2.41150       -3.10477        1.34944
C         -3.90813       -2.72013        1.43543
O         -4.51002       -3.28801        2.61113
C         -3.83875       -2.82392        3.78898
C         -2.34602       -3.18323        3.75351
N         -1.66545       -2.65229        2.55596
C          0.35864        1.76122       -0.18007
C          1.61531        1.30140       -0.13004
H          3.36518       -1.29308        0.89476
H          3.42410       -1.30216       -0.88560
H          3.95111        0.13784        0.01661
H         -2.34755       -2.97797       -0.81272
H         -0.77362       -3.11477       -0.05750
H         -2.35888       -4.20281        1.34171
H         -4.06217       -1.63609        1.45905
H         -4.45034       -3.11706        0.57088
H         -4.31478       -3.30056        4.65169
H         -3.98384       -1.74109        3.88372
H         -2.22832       -4.27344        3.76667
H         -1.84978       -2.79293        4.64817
H         -1.71968       -1.63205        2.59290
H          0.13740        2.82067       -0.23786
H          2.47745        1.95512       -0.14444

--Link1--
%chk=JID_7840.chk
%mem=8GB
%nprocshared=4
# B3LYP/6-311++G(d,p) empiricaldispersion=gd3bj scf=xqc pop=npa geom=check

CID_80418914_JID_7840_Energie_neutraal

0 1

--Link1--
%chk=JID_7840.chk
%mem=8GB
%nprocshared=4
# B3LYP/6-311++G(d,p) empiricaldispersion=gd3bj scf=xqc pop=npa geom=check

CID_80418914_JID_7840_Energie_kation

1 2

--Link1--
%chk=JID_7840.chk
%mem=8GB
%nprocshared=4
# B3LYP/6-311++G(d,p) empiricaldispersion=gd3bj scf=xqc pop=npa geom=check

CID_80418914_JID_7840_Energie_anion

-1 2
