%chk=JID_6411.chk
%mem=8GB
%nprocshared=4
# opt freq B3LYP/6-31G(d) empiricaldispersion=gd3bj scf=xqc

CID_81324775_JID_6411_neutraal

0 1
C          0.96655        0.09424       -0.00061
C          0.98138       -1.41358       -0.20321
C          1.61213       -2.17952        0.96364
N          0.82525       -2.09939        2.19809
C         -0.27165       -3.06970        2.34059
C          0.14382       -4.46201        2.80755
O         -0.61672       -5.40768        2.95160
O          1.45176       -4.60094        3.09368
C          1.20287       -1.16009        3.15937
O          2.15552       -0.39883        2.96393
C          0.40736       -1.09210        4.48506
C          0.80045       -2.22437        5.42650
C          0.81938       -1.56808        6.78559
C          1.22354       -0.14319        6.46863
O          0.63532        0.14046        5.19437
C          2.73152        0.05548        6.38512
H          0.32230        0.37868        0.83658
H          0.58117        0.58925       -0.89784
H          1.97462        0.47629        0.18826
H         -0.04265       -1.76091       -0.38007
H          1.55346       -1.63506       -1.11205
H          1.71077       -3.23678        0.69114
H          2.62914       -1.81043        1.13807
H         -1.01446       -2.70132        3.04884
H         -0.75839       -3.17586        1.36570
H          1.54949       -5.53526        3.37306
H         -0.66408       -1.09786        4.26918
H          0.10051       -3.06400        5.38633
H          1.79466       -2.61781        5.18361
H          1.47798       -2.06758        7.50158
H         -0.19709       -1.57645        7.19785
H          0.81202        0.55499        7.20501
H          2.95985        1.08419        6.08587
H          3.20763       -0.14108        7.35038
H          3.18850       -0.59562        5.63301

--Link1--
%chk=JID_6411.chk
%mem=8GB
%nprocshared=4
# B3LYP/6-311++G(d,p) empiricaldispersion=gd3bj scf=xqc pop=npa geom=check

CID_81324775_JID_6411_Energie_neutraal

0 1

--Link1--
%chk=JID_6411.chk
%mem=8GB
%nprocshared=4
# B3LYP/6-311++G(d,p) empiricaldispersion=gd3bj scf=xqc pop=npa geom=check

CID_81324775_JID_6411_Energie_kation

1 2

--Link1--
%chk=JID_6411.chk
%mem=8GB
%nprocshared=4
# B3LYP/6-311++G(d,p) empiricaldispersion=gd3bj scf=xqc pop=npa geom=check

CID_81324775_JID_6411_Energie_anion

-1 2
