%chk=JID_9773.chk
%mem=8GB
%nprocshared=4
# opt freq B3LYP/6-31G(d) empiricaldispersion=gd3bj scf=xqc

CID_154167971_JID_9773_neutraal

0 1
C          1.02118        0.07059        0.06760
C          1.32680       -0.78437       -1.15376
C          1.64231       -2.20718       -0.79964
C          2.78450       -2.71261       -0.17740
N          2.56464       -4.06165        0.00879
C          1.36783       -4.45900       -0.52203
C          0.75768       -3.31988       -1.03279
C         -0.51611       -3.46127       -1.62266
C         -1.12064       -4.72701       -1.69045
C         -0.48013       -5.85199       -1.17478
C          0.77890       -5.72862       -0.57578
O         -0.97314       -7.13037       -1.18619
C         -2.23530       -7.32805       -1.80941
C          4.03606       -2.13089        0.31132
C          4.60913       -0.97534       -0.20086
C          5.81250       -0.52597        0.34031
C          6.40914       -1.24355        1.36877
C          5.78007       -2.39441        1.80906
N          4.61813       -2.85852        1.29923
H          0.17086       -0.33364        0.62747
H          0.77159        1.09146       -0.23858
H          1.87577        0.12275        0.74930
H          0.45892       -0.74991       -1.82267
H          2.14757       -0.34461       -1.72711
H          3.22524       -4.65924        0.48645
H         -1.03464       -2.59784       -2.02797
H         -2.09903       -4.79065       -2.15462
H          1.28096       -6.59886       -0.16522
H         -3.02472       -6.77963       -1.28495
H         -2.20019       -7.05547       -2.86947
H         -2.47477       -8.39417       -1.74855
H          4.15831       -0.43080       -1.01855
H          6.28095        0.37564       -0.04395
H          7.34352       -0.91786        1.81170
H          6.20686       -2.99385        2.60798

--Link1--
%chk=JID_9773.chk
%mem=8GB
%nprocshared=4
# B3LYP/6-311++G(d,p) empiricaldispersion=gd3bj scf=xqc pop=npa geom=check

CID_154167971_JID_9773_Energie_neutraal

0 1

--Link1--
%chk=JID_9773.chk
%mem=8GB
%nprocshared=4
# B3LYP/6-311++G(d,p) empiricaldispersion=gd3bj scf=xqc pop=npa geom=check

CID_154167971_JID_9773_Energie_kation

1 2

--Link1--
%chk=JID_9773.chk
%mem=8GB
%nprocshared=4
# B3LYP/6-311++G(d,p) empiricaldispersion=gd3bj scf=xqc pop=npa geom=check

CID_154167971_JID_9773_Energie_anion

-1 2
