%chk=JID_4468.chk
%mem=8GB
%nprocshared=4
# opt freq B3LYP/6-31G(d) empiricaldispersion=gd3bj scf=xqc

CID_54046547_JID_4468_neutraal

0 1
C          1.01280        0.04740       -0.08712
C          0.34641        1.18895        0.68528
C          0.83638        2.57960        0.28269
O          0.43966        2.91433       -1.02652
O          0.28000        3.56131        1.13119
C          0.50736       -0.10906       -1.49560
C         -0.39266       -0.99507       -1.97159
C         -0.76826       -1.02624       -3.43192
C         -0.21883       -2.22938       -4.16773
O         -0.75052       -2.77921       -5.12107
O          1.00777       -2.61925       -3.76828
C         -1.11025       -1.93390       -1.07688
O         -1.30087       -1.81518        0.11906
O         -1.59862       -2.99035       -1.74713
H          0.88958       -0.88437        0.47423
H          2.09754        0.20910       -0.12573
H         -0.74366        1.12858        0.57051
H          0.54647        1.05098        1.75563
H          1.92760        2.63824        0.35256
H          0.88444        3.76011       -1.20699
H         -0.66358        3.34105        1.21171
H          0.96542        0.58093       -2.20455
H         -1.86065       -1.03254       -3.52745
H         -0.40692       -0.13355       -3.95631
H          1.21635       -3.37387       -4.35739
H         -2.04467       -3.51836       -1.05199

--Link1--
%chk=JID_4468.chk
%mem=8GB
%nprocshared=4
# B3LYP/6-311++G(d,p) empiricaldispersion=gd3bj scf=xqc pop=npa geom=check

CID_54046547_JID_4468_Energie_neutraal

0 1

--Link1--
%chk=JID_4468.chk
%mem=8GB
%nprocshared=4
# B3LYP/6-311++G(d,p) empiricaldispersion=gd3bj scf=xqc pop=npa geom=check

CID_54046547_JID_4468_Energie_kation

1 2

--Link1--
%chk=JID_4468.chk
%mem=8GB
%nprocshared=4
# B3LYP/6-311++G(d,p) empiricaldispersion=gd3bj scf=xqc pop=npa geom=check

CID_54046547_JID_4468_Energie_anion

-1 2
