%chk=JID_9925.chk
%mem=8GB
%nprocshared=4
# opt freq B3LYP/6-31G(d) empiricaldispersion=gd3bj scf=xqc

CID_19839336_JID_9925_neutraal

0 1
C          1.08168        0.05708        0.00837
C          0.99138       -0.57356        1.38851
C          1.39001        0.37863        2.49011
O          0.71933        0.57839        3.49436
O          2.59721        0.94284        2.22591
C          3.10749        1.88429        3.18622
C          2.85069        3.31148        2.70675
C          1.38957        3.76532        2.81397
C          0.86359        3.94596        4.24655
N          1.19400        5.28785        4.75032
C          0.10985        6.05366        5.38521
C         -0.27918        5.49828        6.74924
C          2.46251        5.53949        5.27537
C          3.11769        6.72696        4.91967
C          4.38531        7.03406        5.41571
C          5.01735        6.15878        6.29442
C          4.38968        4.96768        6.67213
C          3.11469        4.67174        6.16192
C          5.04135        4.05751        7.67038
H          0.51056        0.99039       -0.03424
H          0.68467       -0.62614       -0.74870
H          2.11882        0.28743       -0.25613
H         -0.04403       -0.88284        1.57131
H          1.62133       -1.46656        1.45317
H          2.72529        1.69636        4.19448
H          4.18912        1.71517        3.22835
H          3.50127        3.99875        3.25371
H          3.14014        3.37865        1.65034
H          1.27847        4.70973        2.26545
H          0.75257        3.04250        2.29247
H         -0.22902        3.85336        4.19123
H          1.18876        3.14891        4.92063
H          0.38420        7.11128        5.48492
H         -0.76833        6.03602        4.72816
H          0.54516        5.57783        7.46482
H         -1.12711        6.05930        7.15496
H         -0.56963        4.44485        6.68586
H          2.63738        7.41365        4.22685
H          4.87434        7.95681        5.11676
H          5.99867        6.41350        6.68741
H          2.61474        3.76544        6.49201
H          4.84104        4.41390        8.68574
H          4.66466        3.03378        7.57696
H          6.12443        4.02226        7.51289

--Link1--
%chk=JID_9925.chk
%mem=8GB
%nprocshared=4
# B3LYP/6-311++G(d,p) empiricaldispersion=gd3bj scf=xqc pop=npa geom=check

CID_19839336_JID_9925_Energie_neutraal

0 1

--Link1--
%chk=JID_9925.chk
%mem=8GB
%nprocshared=4
# B3LYP/6-311++G(d,p) empiricaldispersion=gd3bj scf=xqc pop=npa geom=check

CID_19839336_JID_9925_Energie_kation

1 2

--Link1--
%chk=JID_9925.chk
%mem=8GB
%nprocshared=4
# B3LYP/6-311++G(d,p) empiricaldispersion=gd3bj scf=xqc pop=npa geom=check

CID_19839336_JID_9925_Energie_anion

-1 2
