%chk=JID_1002.chk
%mem=8GB
%nprocshared=4
# opt freq B3LYP/6-31G(d) empiricaldispersion=gd3bj scf=xqc

CID_123431049_JID_1002_neutraal

0 1
C          0.53000       -0.85000       -1.34200
C         -0.08641        0.56081       -1.39490
C         -1.60208        0.42676       -1.32953
C         -1.75247        0.13528        0.14916
C         -1.12929       -1.23926        0.45503
O         -1.76915       -2.16360        0.95271
C          0.34702       -1.38560        0.07943
C          1.17901       -0.53717        1.04356
O          1.36067        0.80574        0.56647
C          0.20370        1.32243       -0.08154
O         -0.95569        1.15716        0.75974
H          1.59649       -0.80747       -1.59444
H          0.04959       -1.50899       -2.07492
H          0.25616        1.09396       -2.28625
H         -2.00337       -0.35900       -1.97644
H         -2.07508        1.38143       -1.58761
H         -2.78230        0.18469        0.51045
H          0.62159       -2.44272        0.15469
H          2.18233       -0.96553        1.14140
H          0.74375       -0.49950        2.04896
H          0.34316        2.39270       -0.26238

--Link1--
%chk=JID_1002.chk
%mem=8GB
%nprocshared=4
# B3LYP/6-311++G(d,p) empiricaldispersion=gd3bj scf=xqc pop=npa geom=check

CID_123431049_JID_1002_Energie_neutraal

0 1

--Link1--
%chk=JID_1002.chk
%mem=8GB
%nprocshared=4
# B3LYP/6-311++G(d,p) empiricaldispersion=gd3bj scf=xqc pop=npa geom=check

CID_123431049_JID_1002_Energie_kation

1 2

--Link1--
%chk=JID_1002.chk
%mem=8GB
%nprocshared=4
# B3LYP/6-311++G(d,p) empiricaldispersion=gd3bj scf=xqc pop=npa geom=check

CID_123431049_JID_1002_Energie_anion

-1 2
