%chk=JID_6266.chk
%mem=8GB
%nprocshared=4
# opt freq B3LYP/6-31G(d) empiricaldispersion=gd3bj scf=xqc

CID_79695691_JID_6266_neutraal

0 1
C          2.49200        0.00400       -0.01400
C          1.01579       -0.01971        0.26839
C          0.26853       -1.20758        0.36829
C         -1.11225       -1.13715        0.60591
C         -1.74785        0.09647        0.77145
C         -1.02703        1.29038        0.69379
C          0.35244        1.21208        0.45183
N         -1.66023        2.53027        0.87265
C         -3.04960        2.86360        0.79992
C         -2.62753        4.26492        0.62268
C         -1.22061        3.84092        0.50467
C         -3.15151        5.46484        1.34608
C         -3.32596        5.33885       -0.14573
C          0.82886       -2.57596        0.22202
O          0.20789       -3.55764       -0.14471
O          2.10473       -2.68152        0.62695
H          3.05588       -0.28797        0.87708
H          2.73953       -0.65816       -0.84980
H          2.82538        1.00674       -0.30398
H         -1.70349       -2.04898        0.67326
H         -2.81635        0.11115        0.96853
H          0.92976        2.13319        0.40134
H         -3.55226        2.41497       -0.06271
H         -3.58592        2.62016        1.72083
H         -0.51406        4.26185        1.22479
H         -0.80353        3.88333       -0.50643
H         -4.02802        5.34380        1.97196
H         -2.43856        6.19340        1.71422
H         -2.73154        5.98471       -0.78146
H         -4.32118        5.13522       -0.52362
H          2.30355       -3.63545        0.52450

--Link1--
%chk=JID_6266.chk
%mem=8GB
%nprocshared=4
# B3LYP/6-311++G(d,p) empiricaldispersion=gd3bj scf=xqc pop=npa geom=check

CID_79695691_JID_6266_Energie_neutraal

0 1

--Link1--
%chk=JID_6266.chk
%mem=8GB
%nprocshared=4
# B3LYP/6-311++G(d,p) empiricaldispersion=gd3bj scf=xqc pop=npa geom=check

CID_79695691_JID_6266_Energie_kation

1 2

--Link1--
%chk=JID_6266.chk
%mem=8GB
%nprocshared=4
# B3LYP/6-311++G(d,p) empiricaldispersion=gd3bj scf=xqc pop=npa geom=check

CID_79695691_JID_6266_Energie_anion

-1 2
