%chk=JID_10690.chk
%mem=8GB
%nprocshared=4
# opt freq B3LYP/6-31G(d) empiricaldispersion=gd3bj scf=xqc

CID_65866943_JID_10690_neutraal

0 1
C          0.93151        0.01918       -0.07029
C          0.47410        0.43074        1.31827
N          1.35654       -0.05873        2.36361
C          2.25064        0.63947        3.13996
C          2.81366       -0.29820        3.98464
C          2.19656       -1.52249        3.65483
N          1.29677       -1.36956        2.68106
C          2.43765       -2.86019        4.24521
C          2.49710        2.10737        3.03413
N          3.31263        2.43759        1.86786
C          4.68335        2.49653        1.77759
C          4.96182        2.79038        0.45045
C          3.68554        2.91218       -0.16526
N          2.69326        2.76375        0.71607
C          3.36667        3.18555       -1.58925
C          6.29974        2.93414       -0.20839
C          6.62517        4.37790       -0.64708
C          6.70804        5.34591        0.53450
N          7.89911        4.39996       -1.38179
C          5.58150        2.24495        2.93367
H          0.30233        0.48866       -0.83260
H          0.86006       -1.06652       -0.19756
H          1.97181        0.29869       -0.25758
H          0.39661        1.51699        1.39788
H         -0.52357        0.02549        1.52454
H          3.56943       -0.12505        4.73725
H          1.49168       -3.36029        4.47725
H          2.99890       -3.48858        3.54622
H          3.01404       -2.78349        5.17260
H          1.56125        2.67241        2.96255
H          3.02093        2.47903        3.92096
H          3.30763        4.26399       -1.76453
H          4.13155        2.76810       -2.25135
H          2.40751        2.73803       -1.87089
H          7.08896        2.56313        0.45710
H          6.31817        2.27434       -1.08656
H          5.84730        4.73465       -1.33163
H          7.45386        5.02174        1.26847
H          6.98035        6.35243        0.19693
H          5.74314        5.42968        1.04508
H          8.09991        5.35385       -1.68196
H          8.66108        4.13932       -0.75587
H          6.62854        2.43151        2.67874
H          5.33124        2.90349        3.77146
H          5.50020        1.20619        3.26731

--Link1--
%chk=JID_10690.chk
%mem=8GB
%nprocshared=4
# B3LYP/6-311++G(d,p) empiricaldispersion=gd3bj scf=xqc pop=npa geom=check

CID_65866943_JID_10690_Energie_neutraal

0 1

--Link1--
%chk=JID_10690.chk
%mem=8GB
%nprocshared=4
# B3LYP/6-311++G(d,p) empiricaldispersion=gd3bj scf=xqc pop=npa geom=check

CID_65866943_JID_10690_Energie_kation

1 2

--Link1--
%chk=JID_10690.chk
%mem=8GB
%nprocshared=4
# B3LYP/6-311++G(d,p) empiricaldispersion=gd3bj scf=xqc pop=npa geom=check

CID_65866943_JID_10690_Energie_anion

-1 2
