%chk=JID_8952.chk
%mem=8GB
%nprocshared=4
# opt freq B3LYP/6-31G(d) empiricaldispersion=gd3bj scf=xqc

CID_55035635_JID_8952_neutraal

0 1
C          2.49200        0.00400       -0.01400
C          1.00174        0.04811       -0.18226
C          0.27275       -1.14569       -0.26993
C         -1.12570       -1.13877       -0.38847
C         -1.78943        0.09672       -0.39148
C         -1.07257        1.29056       -0.29539
C          0.31698        1.26639       -0.18594
C         -1.92531       -2.41612       -0.42725
N         -1.28772       -3.46119       -1.20018
C         -0.78485       -4.66330       -0.79210
O         -0.32094       -5.41345       -1.65535
C         -0.89389       -5.09657        0.65257
N         -0.00705       -4.36930        1.54041
C         -0.36577       -3.68936        2.67205
C          0.80318       -3.18124        3.18981
C          1.81098       -3.63753        2.32154
N          1.32325       -4.38396        1.33778
N          3.11154       -3.36823        2.46951
H          2.74574       -0.09999        1.04546
H          2.92176       -0.83806       -0.56674
H          2.95686        0.91709       -0.40037
H          0.81436       -2.09027       -0.24070
H         -2.87397        0.14071       -0.46313
H         -1.59826        2.24192       -0.29705
H          0.86242        2.20312       -0.09950
H         -2.13866       -2.74740        0.59059
H         -2.88550       -2.23359       -0.92328
H         -1.12539       -3.27385       -2.18277
H         -1.92503       -4.98628        1.00182
H         -0.62469       -6.15565        0.73371
H         -1.39278       -3.61041        2.99834
H          0.90912       -2.56617        4.07081
H          3.48362       -3.10332        3.37206
H          3.74651       -3.92839        1.91106

--Link1--
%chk=JID_8952.chk
%mem=8GB
%nprocshared=4
# B3LYP/6-311++G(d,p) empiricaldispersion=gd3bj scf=xqc pop=npa geom=check

CID_55035635_JID_8952_Energie_neutraal

0 1

--Link1--
%chk=JID_8952.chk
%mem=8GB
%nprocshared=4
# B3LYP/6-311++G(d,p) empiricaldispersion=gd3bj scf=xqc pop=npa geom=check

CID_55035635_JID_8952_Energie_kation

1 2

--Link1--
%chk=JID_8952.chk
%mem=8GB
%nprocshared=4
# B3LYP/6-311++G(d,p) empiricaldispersion=gd3bj scf=xqc pop=npa geom=check

CID_55035635_JID_8952_Energie_anion

-1 2
