%chk=JID_6165.chk
%mem=8GB
%nprocshared=4
# opt freq B3LYP/6-31G(d) empiricaldispersion=gd3bj scf=xqc

CID_152046399_JID_6165_neutraal

0 1
C         -0.71700        1.22600        0.24100
C          0.75008        0.87534        0.55713
O          0.86735       -0.43593        1.11860
C          0.33785       -1.40391        0.20639
C         -1.14436       -1.12562       -0.08133
N         -1.42748        0.23474       -0.57249
C         -1.49019        0.38176       -2.02773
C         -2.54499        1.39382       -2.52693
S         -1.98787        3.11499       -2.55977
O         -2.97984        3.90444       -3.36186
C         -0.55905        2.78335       -3.62985
C          0.39814        1.86407       -2.89702
N         -0.16312        0.52456       -2.65922
N          0.42603       -0.47303       -3.42574
N         -0.01775       -1.63963       -3.37402
N         -0.41730       -2.70709       -3.33101
H         -1.24977        1.27301        1.20050
H         -0.78503        2.23508       -0.16943
H          1.39280        0.93568       -0.32585
H          1.14252        1.58320        1.29452
H          0.44250       -2.38768        0.67519
H          0.94220       -1.40831       -0.70591
H         -1.69094       -1.23388        0.86514
H         -1.55562       -1.89550       -0.74295
H         -1.91602       -0.55869       -2.39533
H         -2.83393        1.13785       -3.55386
H         -3.45412        1.34306       -1.91786
H         -0.08009        3.74311       -3.84485
H         -0.90762        2.34680       -4.57118
H          0.68658        2.29539       -1.93552
H          1.32132        1.75478       -3.47888

--Link1--
%chk=JID_6165.chk
%mem=8GB
%nprocshared=4
# B3LYP/6-311++G(d,p) empiricaldispersion=gd3bj scf=xqc pop=npa geom=check

CID_152046399_JID_6165_Energie_neutraal

0 1

--Link1--
%chk=JID_6165.chk
%mem=8GB
%nprocshared=4
# B3LYP/6-311++G(d,p) empiricaldispersion=gd3bj scf=xqc pop=npa geom=check

CID_152046399_JID_6165_Energie_kation

1 2

--Link1--
%chk=JID_6165.chk
%mem=8GB
%nprocshared=4
# B3LYP/6-311++G(d,p) empiricaldispersion=gd3bj scf=xqc pop=npa geom=check

CID_152046399_JID_6165_Energie_anion

-1 2
