%chk=JID_9229.chk
%mem=8GB
%nprocshared=4
# opt freq B3LYP/6-31G(d) empiricaldispersion=gd3bj scf=xqc

CID_82744334_JID_9229_neutraal

0 1
C          0.91118       -0.03324       -0.03172
C          0.83166       -1.32387        0.79723
C          2.25388       -1.87273        0.96711
N          0.17376       -1.02200        2.08374
C         -0.10617       -2.22086        2.89262
C         -0.55939       -1.98343        4.38236
C          0.17978       -0.77566        5.00862
C          0.01486       -0.70347        6.52241
O          0.48713       -1.89933        7.13726
C         -0.22704       -3.05360        6.70650
C         -0.09697       -3.23877        5.19841
C         -2.12840       -1.91106        4.50630
N         -2.84407       -0.95499        3.65022
C         -4.12498       -1.51547        3.21221
C         -2.96486        0.39242        4.22273
C         -4.22441        0.78751        4.98272
C         -4.08984        2.29768        5.01529
O         -3.45403        2.68524        3.78862
C         -2.90882        1.50287        3.17013
H          1.51375        0.73207        0.47055
H         -0.08898        0.38101       -0.20162
H          1.35906       -0.22810       -1.01220
H          0.22627       -2.04686        0.23869
H          2.86138       -1.21691        1.60084
H          2.25810       -2.87330        1.40889
H          2.75495       -1.95492       -0.00388
H          0.76279       -0.37836        2.60301
H         -0.86465       -2.82539        2.37976
H          0.79810       -2.83437        2.92356
H          1.25358       -0.88485        4.80099
H         -0.12502        0.17124        4.55562
H          0.61380        0.12472        6.91510
H         -1.02213       -0.52116        6.82248
H         -1.27073       -2.98343        7.02904
H          0.20909       -3.91837        7.21764
H         -0.64274       -4.13534        4.88142
H          0.96530       -3.42521        4.98828
H         -2.48379       -2.92251        4.25927
H         -2.43952       -1.76466        5.54767
H         -4.77807       -1.76166        4.05837
H         -4.65712       -0.82938        2.54520
H         -3.96520       -2.43429        2.63629
H         -2.13358        0.58060        4.90855
H         -4.29402        0.34658        5.98101
H         -5.13696        0.53619        4.43081
H         -5.05504        2.80447        5.10311
H         -3.44913        2.62204        5.84233
H         -1.88710        1.70528        2.83434
H         -3.52559        1.27989        2.29292

--Link1--
%chk=JID_9229.chk
%mem=8GB
%nprocshared=4
# B3LYP/6-311++G(d,p) empiricaldispersion=gd3bj scf=xqc pop=npa geom=check

CID_82744334_JID_9229_Energie_neutraal

0 1

--Link1--
%chk=JID_9229.chk
%mem=8GB
%nprocshared=4
# B3LYP/6-311++G(d,p) empiricaldispersion=gd3bj scf=xqc pop=npa geom=check

CID_82744334_JID_9229_Energie_kation

1 2

--Link1--
%chk=JID_9229.chk
%mem=8GB
%nprocshared=4
# B3LYP/6-311++G(d,p) empiricaldispersion=gd3bj scf=xqc pop=npa geom=check

CID_82744334_JID_9229_Energie_anion

-1 2
