%chk=JID_9933.chk
%mem=8GB
%nprocshared=4
# opt freq B3LYP/6-31G(d) empiricaldispersion=gd3bj scf=xqc

CID_114726208_JID_9933_neutraal

0 1
C          0.93398       -0.07189       -0.02176
O          0.12770       -0.89947       -0.84965
C          0.44300       -0.88632       -2.27539
C          0.16731        0.52952       -2.81556
C         -0.26056        0.60278       -4.28036
O         -1.24176       -0.37482       -4.59975
C         -0.76866       -1.69447       -4.35825
C         -0.57771       -1.88485       -2.86796
C          1.86174       -1.53705       -2.45445
O          2.16847       -2.50039       -1.73942
C          2.80569       -1.08865       -3.46197
C          3.98234       -1.69005       -3.88183
C          4.53301       -0.87405       -4.90108
C          5.66297       -0.92646       -5.73507
C          5.85922        0.10524       -6.66467
C          4.95757        1.16889       -6.76199
C          3.83261        1.24225       -5.93344
C          3.66472        0.20131       -5.02374
O          2.63734        0.08082       -4.13885
H          0.64806       -0.25502        1.01781
H          0.75900        0.98531       -0.23750
H          1.99629       -0.30514       -0.12954
H         -0.66317        0.95101       -2.23061
H          1.01354        1.20167       -2.63479
H         -0.70101        1.58686       -4.47559
H          0.56626        0.49806       -4.98380
H          0.15147       -1.87814       -4.92456
H         -1.52764       -2.39134       -4.72761
H         -0.28745       -2.92179       -2.65940
H         -1.54655       -1.73760       -2.37037
H          4.37705       -2.62262       -3.50034
H          6.36842       -1.74966       -5.67012
H          6.72641        0.07437       -7.32171
H          5.13257        1.95359       -7.49562
H          3.12435        2.05895       -5.99875

--Link1--
%chk=JID_9933.chk
%mem=8GB
%nprocshared=4
# B3LYP/6-311++G(d,p) empiricaldispersion=gd3bj scf=xqc pop=npa geom=check

CID_114726208_JID_9933_Energie_neutraal

0 1

--Link1--
%chk=JID_9933.chk
%mem=8GB
%nprocshared=4
# B3LYP/6-311++G(d,p) empiricaldispersion=gd3bj scf=xqc pop=npa geom=check

CID_114726208_JID_9933_Energie_kation

1 2

--Link1--
%chk=JID_9933.chk
%mem=8GB
%nprocshared=4
# B3LYP/6-311++G(d,p) empiricaldispersion=gd3bj scf=xqc pop=npa geom=check

CID_114726208_JID_9933_Energie_anion

-1 2
