%chk=JID_5241.chk
%mem=8GB
%nprocshared=4
# opt freq B3LYP/6-31G(d) empiricaldispersion=gd3bj scf=xqc

CID_61043595_JID_5241_neutraal

0 1
C          0.91531       -0.00059        0.05317
C          0.79896        0.19884       -1.45004
C          1.41185       -0.94233       -2.26505
C          0.77568       -2.31984       -2.05435
C         -0.72821       -2.41151       -2.34664
C         -1.17265       -1.96929       -3.75906
C         -0.49380       -2.80202       -4.84999
N         -2.63990       -2.07980       -3.78583
C         -3.27830       -1.44990       -4.95367
C         -3.51730       -2.41445       -6.09005
N         -3.56650       -3.72747       -5.96193
C         -3.79220       -4.31875       -7.19357
C         -3.92792       -3.43209       -8.24407
S         -3.76135       -1.82183       -7.68552
C         -3.87574       -5.79912       -7.26815
H          0.31992       -0.85358        0.39164
H          0.55044        0.88755        0.57906
H          1.95632       -0.16503        0.34862
H         -0.25274        0.34223       -1.72029
H          1.31630        1.12827       -1.71739
H          1.36684       -0.67763       -3.32787
H          2.47912       -1.01672       -2.02050
H          1.31184       -3.04895       -2.67326
H          0.94498       -2.64175       -1.01957
H         -1.03638       -3.45285       -2.17826
H         -1.26531       -1.81668       -1.59596
H         -0.89941       -0.91615       -3.89131
H         -0.75379       -3.86271       -4.76437
H         -0.77361       -2.45883       -5.85027
H          0.59570       -2.71813       -4.79454
H         -2.90875       -3.06908       -3.79702
H         -4.26006       -1.08580       -4.62744
H         -2.71387       -0.57065       -5.28590
H         -4.11252       -3.64821       -9.28656
H         -3.24640       -6.26083       -6.50081
H         -4.90791       -6.12676       -7.11136
H         -3.54014       -6.16356       -8.24421

--Link1--
%chk=JID_5241.chk
%mem=8GB
%nprocshared=4
# B3LYP/6-311++G(d,p) empiricaldispersion=gd3bj scf=xqc pop=npa geom=check

CID_61043595_JID_5241_Energie_neutraal

0 1

--Link1--
%chk=JID_5241.chk
%mem=8GB
%nprocshared=4
# B3LYP/6-311++G(d,p) empiricaldispersion=gd3bj scf=xqc pop=npa geom=check

CID_61043595_JID_5241_Energie_kation

1 2

--Link1--
%chk=JID_5241.chk
%mem=8GB
%nprocshared=4
# B3LYP/6-311++G(d,p) empiricaldispersion=gd3bj scf=xqc pop=npa geom=check

CID_61043595_JID_5241_Energie_anion

-1 2
