%chk=JID_8476.chk
%mem=8GB
%nprocshared=4
# opt freq B3LYP/6-31G(d) empiricaldispersion=gd3bj scf=xqc

CID_111425879_JID_8476_neutraal

0 1
C          1.05754        0.07869        0.02230
C         -0.45455        0.09558       -0.14394
C         -1.10844        1.43690        0.20178
C         -0.57858        2.66970       -0.53188
S         -1.44903        3.13359       -2.07079
C         -0.99283        1.76925       -3.20729
C         -1.58884        2.06392       -4.58128
C          0.51929        1.58090       -3.34127
O          1.02337        0.46011       -3.38442
N          1.25854        2.73409       -3.48756
C          2.67164        2.72096       -3.81535
C          3.51341        3.66414       -2.93658
C          3.65731        3.18870       -1.48254
C          4.42854        1.88428       -1.27277
C          4.74268        1.87893        0.22103
C          4.77175        3.34569        0.65035
C          4.45080        4.15690       -0.60131
O          4.79444        3.85846       -3.54081
H          1.43781       -0.93839       -0.11789
H          1.34585        0.41099        1.02453
H          1.55595        0.71660       -0.70900
H         -0.71100       -0.21749       -1.15745
H         -0.88018       -0.66685        0.52068
H         -2.19570        1.35403        0.08365
H         -0.93964        1.60115        1.27511
H         -0.73061        3.53054        0.13036
H          0.49534        2.62780       -0.70819
H         -1.43853        0.84602       -2.83068
H         -1.19972        2.99401       -5.01134
H         -1.34022        1.25922       -5.28298
H         -2.68142        2.13345       -4.53662
H          0.75502        3.61529       -3.51498
H          3.07231        1.70216       -3.78297
H          2.74659        3.03926       -4.86194
H          3.03170        4.64956       -2.92660
H          2.65704        3.07744       -1.04803
H          3.85359        1.00155       -1.56682
H          5.36751        1.87604       -1.83724
H          5.69154        1.37404        0.42845
H          3.96028        1.34686        0.77430
H          5.74250        3.62892        1.06968
H          4.01591        3.52124        1.42461
H          5.38455        4.46393       -1.08712
H          3.88269        5.06201       -0.36476
H          5.21010        2.98753       -3.66273

--Link1--
%chk=JID_8476.chk
%mem=8GB
%nprocshared=4
# B3LYP/6-311++G(d,p) empiricaldispersion=gd3bj scf=xqc pop=npa geom=check

CID_111425879_JID_8476_Energie_neutraal

0 1

--Link1--
%chk=JID_8476.chk
%mem=8GB
%nprocshared=4
# B3LYP/6-311++G(d,p) empiricaldispersion=gd3bj scf=xqc pop=npa geom=check

CID_111425879_JID_8476_Energie_kation

1 2

--Link1--
%chk=JID_8476.chk
%mem=8GB
%nprocshared=4
# B3LYP/6-311++G(d,p) empiricaldispersion=gd3bj scf=xqc pop=npa geom=check

CID_111425879_JID_8476_Energie_anion

-1 2
