%chk=JID_4406.chk
%mem=8GB
%nprocshared=4
# opt freq B3LYP/6-31G(d) empiricaldispersion=gd3bj scf=xqc

CID_151434821_JID_4406_neutraal

0 1
C          1.04996        0.05810        0.06425
N          0.25833        1.16008       -0.47713
C         -1.16270        0.85871       -0.38984
C          0.69299        2.50516       -0.03488
C          2.01751        2.88323       -0.75744
C          2.12158        4.40256       -0.63834
C          0.68664        4.90474       -0.51917
C         -0.19244        3.65663       -0.58034
N          0.84715        2.59319        1.46140
N         -0.27843        2.65287        2.29304
N         -0.44591        3.96996        2.81508
N          2.05350        2.19784        2.00309
N          2.13905        2.12129        3.24543
N          2.25283        2.05390        4.37910
H          0.81984       -0.86992       -0.47256
H          0.85035       -0.11951        1.12654
H          2.12384        0.22018       -0.07094
H         -1.50303        0.69852        0.63687
H         -1.78275        1.63373       -0.84952
H         -1.38276       -0.05884       -0.94919
H          2.91191        2.39287       -0.36096
H          1.95611        2.62042       -1.82307
H          2.63343        4.83422       -1.50445
H          2.69248        4.68246        0.25423
H          0.43325        5.60784       -1.31907
H          0.55225        5.43097        0.43211
H         -0.45215        3.47153       -1.63201
H         -1.13137        3.80292       -0.03822
H         -1.10122        2.35622        1.76089
H         -0.95036        3.93596        3.70410
H          0.46677        4.37124        3.03972

--Link1--
%chk=JID_4406.chk
%mem=8GB
%nprocshared=4
# B3LYP/6-311++G(d,p) empiricaldispersion=gd3bj scf=xqc pop=npa geom=check

CID_151434821_JID_4406_Energie_neutraal

0 1

--Link1--
%chk=JID_4406.chk
%mem=8GB
%nprocshared=4
# B3LYP/6-311++G(d,p) empiricaldispersion=gd3bj scf=xqc pop=npa geom=check

CID_151434821_JID_4406_Energie_kation

1 2

--Link1--
%chk=JID_4406.chk
%mem=8GB
%nprocshared=4
# B3LYP/6-311++G(d,p) empiricaldispersion=gd3bj scf=xqc pop=npa geom=check

CID_151434821_JID_4406_Energie_anion

-1 2
