%chk=JID_1956.chk
%mem=8GB
%nprocshared=4
# opt freq B3LYP/6-31G(d) empiricaldispersion=gd3bj scf=xqc

CID_148964480_JID_1956_neutraal

0 1
C         -2.62700        0.29600        0.15200
C         -2.27896       -0.84083       -0.79510
C         -0.75791       -1.01673       -0.71933
C         -0.22666        0.04617        0.28135
C         -1.47762        0.30662        1.14509
C          0.19389        1.33673       -0.48468
C          1.70737        1.37795       -0.73045
C          2.40162       -0.00214       -0.93791
C          2.30313       -0.11429        0.61088
C          2.49679        1.42768        0.60776
C          0.92729       -0.50480        1.15950
H         -2.67112        1.24478       -0.39499
H         -3.59512        0.14636        0.63899
H         -2.61490       -0.62767       -1.81487
H         -2.77208       -1.76624       -0.47499
H         -0.31868       -0.91602       -1.71702
H         -0.53894       -2.03646       -0.38155
H         -1.61838       -0.50172        1.87453
H         -1.42579        1.24842        1.70079
H         -0.08805        2.23208        0.08375
H         -0.33158        1.40859       -1.44472
H          1.98966        2.15433       -1.44828
H          1.88042       -0.75444       -1.53031
H          3.42972        0.06762       -1.31663
H          3.11483       -0.66948        1.09103
H          3.54032        1.75107        0.50501
H          2.04320        1.98587        1.43130
H          0.84199       -0.11688        2.18302
H          0.86323       -1.59573        1.24575

--Link1--
%chk=JID_1956.chk
%mem=8GB
%nprocshared=4
# B3LYP/6-311++G(d,p) empiricaldispersion=gd3bj scf=xqc pop=npa geom=check

CID_148964480_JID_1956_Energie_neutraal

0 1

--Link1--
%chk=JID_1956.chk
%mem=8GB
%nprocshared=4
# B3LYP/6-311++G(d,p) empiricaldispersion=gd3bj scf=xqc pop=npa geom=check

CID_148964480_JID_1956_Energie_kation

1 2

--Link1--
%chk=JID_1956.chk
%mem=8GB
%nprocshared=4
# B3LYP/6-311++G(d,p) empiricaldispersion=gd3bj scf=xqc pop=npa geom=check

CID_148964480_JID_1956_Energie_anion

-1 2
