%chk=JID_1232.chk
%mem=8GB
%nprocshared=4
# opt freq B3LYP/6-31G(d) empiricaldispersion=gd3bj scf=xqc

CID_129679600_JID_1232_neutraal

0 1
C          1.04159       -0.06680        0.06171
C          0.77582        1.42240        0.21128
C          1.13934        2.23381       -1.03404
C          0.38766        1.85461       -2.31631
C         -1.14177        1.91715       -2.23789
C         -1.65879        3.28359       -1.88992
C         -2.30389        4.08453       -2.75329
C         -2.80227        5.45541       -2.41303
O         -2.25119        6.41799       -3.30793
C         -0.87781        6.73394       -3.08404
C         -0.67761        7.59703       -1.85059
H          0.38931       -0.51737       -0.69206
H          0.85379       -0.57903        1.01085
H          2.08169       -0.25371       -0.22348
H         -0.27394        1.58184        0.48011
H          1.37002        1.79895        1.05278
H          0.97863        3.29686       -0.81757
H          2.21498        2.12672       -1.22383
H          0.72991        2.51955       -3.12029
H          0.67984        0.84255       -2.62123
H         -1.54893        1.59546       -3.20485
H         -1.51703        1.19882       -1.50051
H         -1.48913        3.62258       -0.86995
H         -2.48101        3.75760       -3.77507
H         -3.88821        5.47102       -2.55533
H         -2.61499        5.73098       -1.37071
H         -0.26544        5.82738       -3.03587
H         -0.54279        7.29757       -3.96136
H         -0.88075        7.03568       -0.93389
H          0.35354        7.95917       -1.79986
H         -1.35608        8.45578       -1.86306

--Link1--
%chk=JID_1232.chk
%mem=8GB
%nprocshared=4
# B3LYP/6-311++G(d,p) empiricaldispersion=gd3bj scf=xqc pop=npa geom=check

CID_129679600_JID_1232_Energie_neutraal

0 1

--Link1--
%chk=JID_1232.chk
%mem=8GB
%nprocshared=4
# B3LYP/6-311++G(d,p) empiricaldispersion=gd3bj scf=xqc pop=npa geom=check

CID_129679600_JID_1232_Energie_kation

1 2

--Link1--
%chk=JID_1232.chk
%mem=8GB
%nprocshared=4
# B3LYP/6-311++G(d,p) empiricaldispersion=gd3bj scf=xqc pop=npa geom=check

CID_129679600_JID_1232_Energie_anion

-1 2
