%chk=JID_8167.chk
%mem=8GB
%nprocshared=4
# opt freq B3LYP/6-31G(d) empiricaldispersion=gd3bj scf=xqc

CID_85442223_JID_8167_neutraal

0 1
C          0.92856       -0.01386        0.06859
O          0.49763       -1.37514        0.10638
C         -0.32662       -1.71677       -0.91221
O         -0.69449       -0.98702       -1.81982
C         -0.73292       -3.13082       -0.83570
C         -0.39023       -3.95261        0.16636
C         -0.89263       -5.33619        0.17295
O         -1.62684       -5.69478        1.09142
N         -0.60372       -6.19296       -0.84836
C          0.37446       -6.18138       -1.85890
C          0.21295       -7.10573       -2.90163
C          1.13752       -7.17937       -3.94926
C          2.24862       -6.33084       -3.94597
C          2.43893       -5.42364       -2.89829
C          1.50478       -5.35873       -1.85607
N          3.22694       -6.40204       -5.03845
O          3.01229       -7.21203       -5.95124
O          4.20911       -5.64873       -4.98179
H          1.57371        0.16112        0.93399
H          0.07065        0.66277        0.13382
H          1.50759        0.17928       -0.83994
H         -1.34461       -3.46532       -1.66712
H          0.15638       -3.63799        1.04643
H         -1.19526       -7.01625       -0.80534
H         -0.64771       -7.77207       -2.92285
H          0.97586       -7.89819       -4.75028
H          3.30965       -4.77081       -2.86813
H          1.72099       -4.68059       -1.03742

--Link1--
%chk=JID_8167.chk
%mem=8GB
%nprocshared=4
# B3LYP/6-311++G(d,p) empiricaldispersion=gd3bj scf=xqc pop=npa geom=check

CID_85442223_JID_8167_Energie_neutraal

0 1

--Link1--
%chk=JID_8167.chk
%mem=8GB
%nprocshared=4
# B3LYP/6-311++G(d,p) empiricaldispersion=gd3bj scf=xqc pop=npa geom=check

CID_85442223_JID_8167_Energie_kation

1 2

--Link1--
%chk=JID_8167.chk
%mem=8GB
%nprocshared=4
# B3LYP/6-311++G(d,p) empiricaldispersion=gd3bj scf=xqc pop=npa geom=check

CID_85442223_JID_8167_Energie_anion

-1 2
