%chk=JID_2437.chk
%mem=8GB
%nprocshared=4
# opt freq B3LYP/6-31G(d) empiricaldispersion=gd3bj scf=xqc

CID_143085919_JID_2437_neutraal

0 1
C          1.08659       -0.04232        0.02665
C          1.21737       -1.42802       -0.56428
C         -1.81569        2.67996       -1.01390
C         -1.88794        3.15507       -2.45630
C         -0.78444        2.57727       -3.34470
C         -0.77465        1.05087       -3.48390
C         -2.06968        0.41512       -4.02090
C         -2.46084        0.95512       -5.39516
N         -1.90057       -1.03491       -4.11101
C         -2.08270       -1.96700       -3.13116
O         -1.70212       -3.12162       -3.31299
C         -2.76328       -1.54303       -1.85994
H          0.03724        0.19018        0.23057
H          1.47785        0.70961       -0.66514
H          1.64381        0.02967        0.96536
H          0.81703       -2.17850        0.12379
H          0.66802       -1.49836       -1.50746
H          2.26741       -1.66476       -0.75988
H         -2.01654        1.60834       -0.93490
H         -2.56332        3.20222       -0.40836
H         -0.83007        2.88068       -0.58229
H         -2.87511        2.92292       -2.86996
H         -1.79879        4.24821       -2.46569
H         -0.85869        3.03364       -4.33875
H          0.18907        2.88991       -2.94561
H          0.05857        0.77694       -4.14546
H         -0.52858        0.60639       -2.51284
H         -2.88905        0.61576       -3.32433
H         -1.65328        0.81345       -6.12195
H         -3.34333        0.43057       -5.77855
H         -2.70387        2.02092       -5.35456
H         -1.38523       -1.40452       -4.90225
H         -2.14725       -0.81643       -1.32650
H         -3.74754       -1.12169       -2.07947
H         -2.90183       -2.41653       -1.21576

--Link1--
%chk=JID_2437.chk
%mem=8GB
%nprocshared=4
# B3LYP/6-311++G(d,p) empiricaldispersion=gd3bj scf=xqc pop=npa geom=check

CID_143085919_JID_2437_Energie_neutraal

0 1

--Link1--
%chk=JID_2437.chk
%mem=8GB
%nprocshared=4
# B3LYP/6-311++G(d,p) empiricaldispersion=gd3bj scf=xqc pop=npa geom=check

CID_143085919_JID_2437_Energie_kation

1 2

--Link1--
%chk=JID_2437.chk
%mem=8GB
%nprocshared=4
# B3LYP/6-311++G(d,p) empiricaldispersion=gd3bj scf=xqc pop=npa geom=check

CID_143085919_JID_2437_Energie_anion

-1 2
