%chk=JID_2729.chk
%mem=8GB
%nprocshared=4
# opt=(cartesian,calcfc) freq B3LYP/6-31G(d) empiricaldispersion=gd3bj scf=xqc

CID_63690681_JID_2729_neutraal

0 1
6	-0.341136	 2.558738	 1.367371
6	-0.145604	 2.193074	 -0.101878
7	-0.382273	 0.772418	 -0.378831
6	0.289237	 0.352626	 -1.613348
6	1.772726	 0.036535	 -1.429079
8	1.982777	 -1.180582	 -0.731765
6	2.186678	 -1.054401	 0.673475
6	3.618348	 -0.651105	 1.026469
6	-1.809687	 0.449873	 -0.403508
6	-2.098136	 -1.009610	 -0.046809
6	-1.690781	 -1.352420	 1.381819
8	-3.506418	 -1.162544	 -0.246053
1	-1.365414	 2.372883	 1.706281
1	-0.129651	 3.622402	 1.524626
1	0.333294	 1.971255	 1.998841
1	-0.781639	 2.833147	 -0.743706
1	0.889478	 2.418659	 -0.378834
1	-0.187554	 -0.560515	 -1.979145
1	0.174082	 1.113168	 -2.411433
1	2.226765	 -0.087632	 -2.420141
1	2.294411	 0.869976	 -0.938092
1	1.460177	 -0.348634	 1.099189
1	1.968804	 -2.047783	 1.082397
1	4.337890	 -1.339610	 0.568570
1	3.850292	 0.363645	 0.681147
1	3.759733	 -0.670847	 2.114459
1	-2.331434	 1.071371	 0.329998
1	-2.265762	 0.670378	 -1.385025
1	-1.549176	 -1.668159	 -0.739012
1	-2.233856	 -0.719766	 2.092960
1	-1.917632	 -2.401356	 1.611668
1	-0.618637	 -1.197344	 1.519939
1	-3.738993	 -2.067015	 0.012619

--Link1--
%chk=JID_2729.chk
%mem=8GB
%nprocshared=4
# B3LYP/6-311++G(d,p) empiricaldispersion=gd3bj scf=xqc pop=npa geom=check

CID_63690681_JID_2729_Energie_neutraal

0 1

--Link1--
%chk=JID_2729.chk
%mem=8GB
%nprocshared=4
# B3LYP/6-311++G(d,p) empiricaldispersion=gd3bj scf=xqc pop=npa geom=check

CID_63690681_JID_2729_Energie_kation

1 2

--Link1--
%chk=JID_2729.chk
%mem=8GB
%nprocshared=4
# B3LYP/6-311++G(d,p) empiricaldispersion=gd3bj scf=xqc pop=npa geom=check

CID_63690681_JID_2729_Energie_anion

-1 2
