%chk=JID_7952.chk
%mem=8GB
%nprocshared=4
# opt freq B3LYP/6-31G(d) empiricaldispersion=gd3bj scf=xqc

CID_82746990_JID_7952_neutraal

0 1
C         -2.51700       -1.16700        0.01900
C         -1.34326       -0.23043        0.02172
C         -0.06872       -0.74186        0.32287
C          1.05274        0.07605        0.28252
C          0.81344        1.42184        0.04476
N         -0.39729        1.95711       -0.24016
C         -1.47544        1.14267       -0.24522
N         -2.73550        1.69188       -0.51835
C         -3.60257        1.78855        0.68185
C         -4.25941        3.18059        0.60656
C         -4.15917        3.49799       -0.87343
C         -2.73969        3.00692       -1.17131
C         -2.52092        2.98788       -2.67648
C         -2.71858        4.40413       -3.23654
C         -4.05527        5.03790       -2.82186
C         -4.32463        4.94136       -1.31346
N          2.30140       -0.40005        0.69666
H         -2.19343       -2.20298       -0.13087
H         -3.04771       -1.11114        0.97418
H         -3.20792       -0.93484       -0.79784
H          0.04035       -1.79254        0.57801
H          1.62282        2.14481        0.07794
H         -3.06116        1.67947        1.62951
H         -4.37360        1.01214        0.62692
H         -3.68833        3.90068        1.20489
H         -5.28931        3.17068        0.97474
H         -4.89644        2.87917       -1.40779
H         -2.02125        3.69330       -0.69779
H         -3.22173        2.29609       -3.16032
H         -1.51232        2.63356       -2.91711
H         -2.64815        4.37967       -4.32986
H         -1.90059        5.04355       -2.88125
H         -4.07596        6.08846       -3.13287
H         -4.86644        4.53239       -3.36101
H         -3.62811        5.59303       -0.77233
H         -5.33760        5.29483       -1.09194
H          2.43034       -1.39507        0.53895
H          3.08446        0.14554        0.34856

--Link1--
%chk=JID_7952.chk
%mem=8GB
%nprocshared=4
# B3LYP/6-311++G(d,p) empiricaldispersion=gd3bj scf=xqc pop=npa geom=check

CID_82746990_JID_7952_Energie_neutraal

0 1

--Link1--
%chk=JID_7952.chk
%mem=8GB
%nprocshared=4
# B3LYP/6-311++G(d,p) empiricaldispersion=gd3bj scf=xqc pop=npa geom=check

CID_82746990_JID_7952_Energie_kation

1 2

--Link1--
%chk=JID_7952.chk
%mem=8GB
%nprocshared=4
# B3LYP/6-311++G(d,p) empiricaldispersion=gd3bj scf=xqc pop=npa geom=check

CID_82746990_JID_7952_Energie_anion

-1 2
