%chk=JID_6803.chk
%mem=8GB
%nprocshared=4
# opt freq B3LYP/6-31G(d) empiricaldispersion=gd3bj scf=xqc

CID_84623856_JID_6803_neutraal

0 1
C          1.09341       -0.00619        0.03517
C          0.70964       -0.74324        1.28392
C          0.98084       -2.11272        1.39779
C          0.65511       -2.82196        2.56358
C          0.04122       -2.13589        3.62145
C         -0.25856       -0.76093        3.51999
C          0.09412       -0.07719        2.35081
N         -0.95089       -0.05107        4.52820
C         -1.37601       -0.88401        5.66908
C         -0.35358       -2.00580        5.90423
O         -0.24705       -2.86009        4.75926
C         -2.79238       -1.40951        5.39658
C         -3.34423       -2.10630        6.60378
O         -2.98082       -1.96526        7.75959
O         -4.36415       -2.93183        6.30210
C          0.93107       -4.29723        2.62064
H          0.64783        0.99363        0.00715
H          0.74288       -0.54729       -0.84986
H          2.18136        0.10151       -0.01670
H          1.45111       -2.63564        0.56649
H         -0.14250        0.98053        2.26267
H         -0.42200        0.77707        4.79579
H         -1.39682       -0.24065        6.55755
H          0.63851       -1.59512        6.13699
H         -0.63954       -2.63354        6.75369
H         -3.46586       -0.57905        5.15433
H         -2.79826       -2.10413        4.54913
H         -4.63562       -3.31787        7.16082
H          0.14402       -4.84282        2.09057
H          1.89562       -4.52382        2.15355
H          0.98274       -4.67011        3.64793

--Link1--
%chk=JID_6803.chk
%mem=8GB
%nprocshared=4
# B3LYP/6-311++G(d,p) empiricaldispersion=gd3bj scf=xqc pop=npa geom=check

CID_84623856_JID_6803_Energie_neutraal

0 1

--Link1--
%chk=JID_6803.chk
%mem=8GB
%nprocshared=4
# B3LYP/6-311++G(d,p) empiricaldispersion=gd3bj scf=xqc pop=npa geom=check

CID_84623856_JID_6803_Energie_kation

1 2

--Link1--
%chk=JID_6803.chk
%mem=8GB
%nprocshared=4
# B3LYP/6-311++G(d,p) empiricaldispersion=gd3bj scf=xqc pop=npa geom=check

CID_84623856_JID_6803_Energie_anion

-1 2
