%chk=JID_3286.chk
%mem=8GB
%nprocshared=4
# opt freq B3LYP/6-31G(d) empiricaldispersion=gd3bj scf=xqc

CID_22311640_JID_3286_neutraal

0 1
C          0.90021        0.00522       -0.00376
C          0.22944        0.94233       -1.00323
C          0.74279        0.82826       -2.46649
C          0.59574       -0.61641       -2.96819
C         -0.11309        1.76291       -3.34035
C          2.19610        1.32226       -2.54360
O          2.69161        2.11915       -1.75306
C          3.05638        0.84690       -3.71068
O          2.58771        0.92680       -4.84182
C          4.47538        0.35039       -3.40703
C          5.41640        1.55649       -3.29921
C          4.52406       -0.48100       -2.11835
C          4.93946       -0.54109       -4.57388
H          0.68887       -1.04335       -0.23256
H          0.51907        0.20336        1.00351
H          1.98456        0.14387        0.01746
H         -0.84998        0.74271       -0.97878
H          0.35551        1.97234       -0.64463
H         -0.40500       -1.00774       -2.75266
H          0.74004       -0.69058       -4.05130
H          1.32816       -1.28304       -2.50128
H         -0.00716        2.80712       -3.02381
H          0.17799        1.71523       -4.39482
H         -1.17493        1.49878       -3.28071
H          5.16894        2.18963       -2.44103
H          6.45799        1.23685       -3.18214
H          5.35609        2.18642       -4.19423
H          3.79795       -1.30079       -2.14888
H          5.51741       -0.91953       -1.96897
H          4.30313        0.12144       -1.23148
H          4.26245       -1.39199       -4.71345
H          4.96424        0.01505       -5.51834
H          5.94608       -0.93691       -4.39791

--Link1--
%chk=JID_3286.chk
%mem=8GB
%nprocshared=4
# B3LYP/6-311++G(d,p) empiricaldispersion=gd3bj scf=xqc pop=npa geom=check

CID_22311640_JID_3286_Energie_neutraal

0 1

--Link1--
%chk=JID_3286.chk
%mem=8GB
%nprocshared=4
# B3LYP/6-311++G(d,p) empiricaldispersion=gd3bj scf=xqc pop=npa geom=check

CID_22311640_JID_3286_Energie_kation

1 2

--Link1--
%chk=JID_3286.chk
%mem=8GB
%nprocshared=4
# B3LYP/6-311++G(d,p) empiricaldispersion=gd3bj scf=xqc pop=npa geom=check

CID_22311640_JID_3286_Energie_anion

-1 2
