%chk=JID_10879.chk
%mem=8GB
%nprocshared=4
# opt freq B3LYP/6-31G(d) empiricaldispersion=gd3bj scf=xqc

CID_103771071_JID_10879_neutraal

0 1
C          0.95216       -0.02428       -0.08439
C          0.35902       -0.92636       -1.16706
C          0.76340       -2.38055       -0.90829
C         -1.17441       -0.81947       -1.24643
C         -1.73807        0.58974       -1.48640
C         -1.23135        1.28846       -2.76264
N         -1.63765        0.58243       -3.97360
C         -2.57345        0.88271       -4.91810
O         -2.96499       -0.04838       -5.62815
C         -3.18883        2.29178       -5.06236
C         -4.17501        2.61167       -3.94879
N         -2.14084        3.31043       -5.17059
C         -1.71288        3.87916       -6.35284
O         -0.50372        4.09544       -6.44794
C         -2.68099        4.23133       -7.37016
C         -4.02833        4.54994       -7.33150
C         -4.42525        4.83664       -8.66044
C         -3.29847        4.69363       -9.43216
O         -2.23892        4.33895       -8.66381
O         -3.16683        0.49812       -1.53881
H          0.50691       -0.23365        0.89411
H          0.79171        1.03344       -0.31371
H          2.03389       -0.17627       -0.00224
H          0.79016       -0.63607       -2.13233
H          0.37657       -2.73653        0.05272
H          0.37716       -3.03779       -1.69455
H          1.85362       -2.48450       -0.89355
H         -1.54353       -1.49523       -2.02960
H         -1.61595       -1.20688       -0.31753
H         -1.50349        1.22452       -0.62554
H         -1.62271        2.30467       -2.77602
H         -0.14000        1.35384       -2.77447
H         -1.30869       -0.37232       -4.07331
H         -3.74254        2.25356       -6.00591
H         -3.68583        2.80105       -2.99065
H         -4.74584        3.51419       -4.19194
H         -4.88448        1.78979       -3.80650
H         -1.32200        3.14995       -4.60022
H         -4.64773        4.58824       -6.44714
H         -5.40641        5.12442       -9.01110
H         -3.09102        4.80959      -10.48704
H         -3.39020       -0.07454       -2.29560

--Link1--
%chk=JID_10879.chk
%mem=8GB
%nprocshared=4
# B3LYP/6-311++G(d,p) empiricaldispersion=gd3bj scf=xqc pop=npa geom=check

CID_103771071_JID_10879_Energie_neutraal

0 1

--Link1--
%chk=JID_10879.chk
%mem=8GB
%nprocshared=4
# B3LYP/6-311++G(d,p) empiricaldispersion=gd3bj scf=xqc pop=npa geom=check

CID_103771071_JID_10879_Energie_kation

1 2

--Link1--
%chk=JID_10879.chk
%mem=8GB
%nprocshared=4
# B3LYP/6-311++G(d,p) empiricaldispersion=gd3bj scf=xqc pop=npa geom=check

CID_103771071_JID_10879_Energie_anion

-1 2
