%chk=JID_1332.chk
%mem=8GB
%nprocshared=4
# opt freq B3LYP/6-31G(d) empiricaldispersion=gd3bj scf=xqc

CID_83864160_JID_1332_neutraal

0 1
C         -0.78000        1.93900       -0.04000
N         -0.05943        0.69040        0.00089
C         -0.59013       -0.57343        0.02607
C          0.49503       -1.41728        0.04272
C          1.63616       -0.58401        0.03369
N          1.28617        0.70580        0.01591
N          2.93980       -0.93229        0.05437
C          3.55428       -2.24782       -0.07087
C          3.07051       -3.48550        0.62345
C          3.01111       -3.38777       -0.87855
N         -1.91178       -0.84354        0.02688
H         -1.39823        1.95235       -0.94102
H         -1.40154        2.00886        0.85610
H         -0.07214        2.77175       -0.06492
H          0.44642       -2.49231        0.06336
H          3.55961       -0.12747        0.01426
H          4.63854       -2.13769       -0.10275
H          3.81738       -4.13951        1.05992
H          2.15405       -3.44181        1.19518
H          2.05161       -3.28105       -1.36499
H          3.71801       -3.97699       -1.45245
H         -2.24073       -1.79387        0.18139
H         -2.62117       -0.13734        0.19792

--Link1--
%chk=JID_1332.chk
%mem=8GB
%nprocshared=4
# B3LYP/6-311++G(d,p) empiricaldispersion=gd3bj scf=xqc pop=npa geom=check

CID_83864160_JID_1332_Energie_neutraal

0 1

--Link1--
%chk=JID_1332.chk
%mem=8GB
%nprocshared=4
# B3LYP/6-311++G(d,p) empiricaldispersion=gd3bj scf=xqc pop=npa geom=check

CID_83864160_JID_1332_Energie_kation

1 2

--Link1--
%chk=JID_1332.chk
%mem=8GB
%nprocshared=4
# B3LYP/6-311++G(d,p) empiricaldispersion=gd3bj scf=xqc pop=npa geom=check

CID_83864160_JID_1332_Energie_anion

-1 2
