%chk=JID_40.chk
%mem=8GB
%nprocshared=4
# opt freq B3LYP/6-31G(d) empiricaldispersion=gd3bj scf=xqc

CID_123308897_JID_40_neutraal

0 1
C          1.05426       -0.06731       -0.05025
C          0.88186       -1.34026        0.77031
C          1.40524       -1.20027        2.18413
C          0.54612       -1.07464        3.21161
C          2.84011       -1.21312        2.45352
C          3.82176       -1.41159        1.55715
C          5.24746       -1.39237        1.85007
C          6.13916       -1.57483        0.86227
O          5.54630       -1.17091        3.17543
C          6.91551       -1.09464        3.54902
H          0.54531        0.77854        0.42439
H          0.62066       -0.20331       -1.04644
H          2.10672        0.20094       -0.18028
H         -0.18802       -1.58727        0.78889
H          1.36298       -2.18593        0.26499
H          0.88362       -0.97847        4.23930
H         -0.52805       -1.06331        3.05361
H          3.12094       -1.03841        3.49227
H          3.56773       -1.59758        0.51758
H          7.20927       -1.56652        1.02516
H          5.82063       -1.74012       -0.16261
H          7.43065       -2.03957        3.34843
H          7.41340       -0.26061        3.04373
H          6.96020       -0.90974        4.62637

--Link1--
%chk=JID_40.chk
%mem=8GB
%nprocshared=4
# B3LYP/6-311++G(d,p) empiricaldispersion=gd3bj scf=xqc pop=npa geom=check

CID_123308897_JID_40_Energie_neutraal

0 1

--Link1--
%chk=JID_40.chk
%mem=8GB
%nprocshared=4
# B3LYP/6-311++G(d,p) empiricaldispersion=gd3bj scf=xqc pop=npa geom=check

CID_123308897_JID_40_Energie_kation

1 2

--Link1--
%chk=JID_40.chk
%mem=8GB
%nprocshared=4
# B3LYP/6-311++G(d,p) empiricaldispersion=gd3bj scf=xqc pop=npa geom=check

CID_123308897_JID_40_Energie_anion

-1 2
