%chk=JID_2559.chk
%mem=8GB
%nprocshared=4
# opt freq B3LYP/6-31G(d) empiricaldispersion=gd3bj scf=xqc

CID_134208866_JID_2559_neutraal

0 1
C          0.95102        0.06926       -0.05296
C          0.09687        0.31541       -1.30300
C         -0.55906        1.70326       -1.24137
C          0.34435        2.82136       -1.69645
C          1.45787        2.60186       -2.41871
C          1.94450        1.24463       -2.89541
C          0.85201        0.15698       -2.64058
O          1.32374       -1.17864       -2.78853
C          3.38080        0.86057       -2.39794
C          4.11024       -0.01526       -3.43212
C          4.28803        2.06165       -2.09182
C         -0.09525        4.20807       -1.31976
H          1.42261       -0.91731       -0.07387
H          0.32320        0.10429        0.84481
H          1.73152        0.82520        0.07146
H         -0.69877       -0.44179       -1.27464
H         -1.45019        1.70826       -1.88256
H         -0.90844        1.89765       -0.21974
H          2.04646        3.45814       -2.74490
H          2.02197        1.33599       -3.98937
H          0.10279        0.27756       -3.43591
H          1.94109       -1.37163       -2.06485
H          3.30419        0.28040       -1.47268
H          4.27674        0.53536       -4.36474
H          5.08889       -0.32720       -3.05052
H          3.55686       -0.92374       -3.67771
H          3.89512        2.65594       -1.26057
H          5.28830        1.72611       -1.79539
H          4.40066        2.71125       -2.96649
H         -1.09185        4.41256       -1.72417
H         -0.13291        4.31103       -0.23047
H          0.58469        4.97578       -1.70369

--Link1--
%chk=JID_2559.chk
%mem=8GB
%nprocshared=4
# B3LYP/6-311++G(d,p) empiricaldispersion=gd3bj scf=xqc pop=npa geom=check

CID_134208866_JID_2559_Energie_neutraal

0 1

--Link1--
%chk=JID_2559.chk
%mem=8GB
%nprocshared=4
# B3LYP/6-311++G(d,p) empiricaldispersion=gd3bj scf=xqc pop=npa geom=check

CID_134208866_JID_2559_Energie_kation

1 2

--Link1--
%chk=JID_2559.chk
%mem=8GB
%nprocshared=4
# B3LYP/6-311++G(d,p) empiricaldispersion=gd3bj scf=xqc pop=npa geom=check

CID_134208866_JID_2559_Energie_anion

-1 2
