%chk=JID_6034.chk
%mem=8GB
%nprocshared=4
# opt freq B3LYP/6-31G(d) empiricaldispersion=gd3bj scf=xqc

CID_67602211_JID_6034_neutraal

0 1
C          2.05600        1.02900        0.00400
C          0.79058        1.62055        0.02262
C         -0.29158        0.80883       -0.22002
C         -0.14634       -0.53729       -0.45650
C          1.08915       -1.17369       -0.43987
C          2.22297       -0.35865       -0.25020
C          3.63538       -0.90815       -0.30091
C          4.20210       -1.22442        1.08168
C          3.62921       -2.48744        1.66180
O          3.15633       -3.43203        1.05076
O          3.73852       -2.52503        3.00406
N          1.18366       -2.52311       -0.80933
O         -1.34817       -1.14602       -0.68590
C         -2.25735       -0.04612       -0.51102
O         -1.59001        1.20876       -0.27779
N         -3.11587        0.07904       -1.67179
H          2.92928        1.65854        0.16818
H          0.66733        2.68230        0.20278
H          3.68994       -1.78100       -0.96171
H          4.27522       -0.15354       -0.77788
H          5.28567       -1.36997        1.00756
H          4.01406       -0.39436        1.77225
H          3.35424       -3.39047        3.25711
H          0.29365       -3.00684       -0.70787
H          1.93386       -3.03136       -0.33477
H         -2.87681       -0.26022        0.36872
H         -3.54977        0.99582       -1.60582
H         -2.48711        0.13071       -2.46996

--Link1--
%chk=JID_6034.chk
%mem=8GB
%nprocshared=4
# B3LYP/6-311++G(d,p) empiricaldispersion=gd3bj scf=xqc pop=npa geom=check

CID_67602211_JID_6034_Energie_neutraal

0 1

--Link1--
%chk=JID_6034.chk
%mem=8GB
%nprocshared=4
# B3LYP/6-311++G(d,p) empiricaldispersion=gd3bj scf=xqc pop=npa geom=check

CID_67602211_JID_6034_Energie_kation

1 2

--Link1--
%chk=JID_6034.chk
%mem=8GB
%nprocshared=4
# B3LYP/6-311++G(d,p) empiricaldispersion=gd3bj scf=xqc pop=npa geom=check

CID_67602211_JID_6034_Energie_anion

-1 2
