%chk=JID_5523.chk
%mem=8GB
%nprocshared=4
# opt freq B3LYP/6-31G(d) empiricaldispersion=gd3bj scf=xqc

CID_79246545_JID_5523_neutraal

0 1
C         -2.85600        0.09400        0.00500
C         -1.38895        0.32464       -0.17588
C         -0.80457        1.51350        0.23599
N          0.51322        1.76871        0.08777
C          1.24566        0.78889       -0.50809
C          0.66670       -0.42487       -0.90709
N         -0.65577       -0.66385       -0.74552
N          1.37146       -1.49075       -1.46611
C          2.19447       -2.27350       -0.50625
C          1.31751       -2.80831        0.65859
O          0.15004       -3.46676        0.16699
C          2.88583       -3.41295       -1.31699
C          3.79948       -2.83274       -2.40839
C          3.71758       -4.34992       -0.43458
C          2.69840        1.08581       -0.71898
H         -3.11783        0.13593        1.06677
H         -3.42866        0.85286       -0.53709
H         -3.14524       -0.88970       -0.37865
H         -1.38438        2.30495        0.69870
H          0.63846       -2.11471       -1.81146
H          2.98142       -1.64162       -0.07875
H          1.86545       -3.50573        1.29646
H          0.99189       -1.99054        1.31180
H         -0.44737       -2.74760       -0.12863
H          2.11681       -4.01683       -1.81700
H          4.57773       -2.19569       -1.97435
H          4.29275       -3.63432       -2.96904
H          3.23459       -2.23549       -3.13102
H          3.08232       -4.94767        0.22534
H          4.28860       -5.05773       -1.04569
H          4.42699       -3.78806        0.18211
H          2.87628        2.16603       -0.68518
H          3.29900        0.62109        0.06770
H          3.03761        0.72944       -1.69653

--Link1--
%chk=JID_5523.chk
%mem=8GB
%nprocshared=4
# B3LYP/6-311++G(d,p) empiricaldispersion=gd3bj scf=xqc pop=npa geom=check

CID_79246545_JID_5523_Energie_neutraal

0 1

--Link1--
%chk=JID_5523.chk
%mem=8GB
%nprocshared=4
# B3LYP/6-311++G(d,p) empiricaldispersion=gd3bj scf=xqc pop=npa geom=check

CID_79246545_JID_5523_Energie_kation

1 2

--Link1--
%chk=JID_5523.chk
%mem=8GB
%nprocshared=4
# B3LYP/6-311++G(d,p) empiricaldispersion=gd3bj scf=xqc pop=npa geom=check

CID_79246545_JID_5523_Energie_anion

-1 2
