%chk=JID_6874.chk
%mem=8GB
%nprocshared=4
# opt freq B3LYP/6-31G(d) empiricaldispersion=gd3bj scf=xqc

CID_21216348_JID_6874_neutraal

0 1
C          1.00578       -0.02934       -0.09542
C          0.58852       -0.77479       -1.35825
C          0.94015       -2.25749       -1.32613
O         -0.80064       -0.55557       -1.69167
C         -1.78303       -0.96124       -0.84290
O         -1.61428       -1.55430        0.21473
C         -3.13107       -0.59622       -1.38721
N         -3.68444        0.52170       -0.66869
C         -4.48643        0.50832        0.44147
C         -4.97618       -0.50056        1.27746
C         -5.79676       -0.09503        2.33741
C         -6.10467        1.25207        2.54611
C         -5.59648        2.24428        1.69820
C         -4.77457        1.85536        0.63139
N         -4.15559        2.60009       -0.33624
N         -3.49408        1.77208       -1.13393
H          0.56067       -0.46478        0.80403
H          0.67948        1.01497       -0.14154
H          2.09336       -0.05163        0.02688
H          1.14340       -0.32913       -2.19267
H          0.47599       -2.77076       -0.47895
H          0.58494       -2.75425       -2.23517
H          2.02308       -2.39846       -1.25098
H         -3.07246       -0.34154       -2.45090
H         -3.80295       -1.45560       -1.29738
H         -4.73042       -1.54684        1.12837
H         -6.19977       -0.84510        3.01589
H         -6.74392        1.53647        3.37910
H         -5.82936        3.29150        1.85644

--Link1--
%chk=JID_6874.chk
%mem=8GB
%nprocshared=4
# B3LYP/6-311++G(d,p) empiricaldispersion=gd3bj scf=xqc pop=npa geom=check

CID_21216348_JID_6874_Energie_neutraal

0 1

--Link1--
%chk=JID_6874.chk
%mem=8GB
%nprocshared=4
# B3LYP/6-311++G(d,p) empiricaldispersion=gd3bj scf=xqc pop=npa geom=check

CID_21216348_JID_6874_Energie_kation

1 2

--Link1--
%chk=JID_6874.chk
%mem=8GB
%nprocshared=4
# B3LYP/6-311++G(d,p) empiricaldispersion=gd3bj scf=xqc pop=npa geom=check

CID_21216348_JID_6874_Energie_anion

-1 2
