%chk=JID_8380.chk
%mem=8GB
%nprocshared=4
# opt freq B3LYP/6-31G(d) empiricaldispersion=gd3bj scf=xqc

CID_15173916_JID_8380_neutraal

0 1
C          0.90933       -0.01696       -0.03862
C          0.88403       -0.35585       -1.52169
C          1.24694       -1.81194       -1.82662
C          0.37779       -2.86829       -1.13733
C         -1.12619       -2.75091       -1.39817
C         -1.55245       -2.92213       -2.85983
C         -1.24077       -4.28769       -3.48362
C         -1.77952       -5.50481       -2.72254
C         -3.27921       -5.47806       -2.41103
C         -4.20320       -5.45877       -3.63418
C         -4.16577       -6.73107       -4.49272
C         -4.53550       -8.00556       -3.76851
C         -3.71767       -9.13725       -3.88133
C         -4.05227      -10.32295       -3.22630
C         -5.20646      -10.39189       -2.44737
C         -6.03682       -9.27466       -2.31729
C         -5.70782       -8.09636       -3.00204
C         -7.29350       -9.34837       -1.50164
H          0.12684       -0.54850        0.51045
H          0.74209        1.05559        0.10360
H          1.87746       -0.27010        0.40492
H         -0.10210       -0.11549       -1.93395
H          1.60017        0.29292       -2.04058
H          1.21296       -1.96190       -2.91219
H          2.29015       -1.98302       -1.53179
H          0.72855       -3.86158       -1.44094
H          0.54509       -2.81767       -0.05454
H         -1.64140       -3.49066       -0.77515
H         -1.48552       -1.77757       -1.04476
H         -2.63124       -2.73662       -2.92734
H         -1.08434       -2.14332       -3.47335
H         -1.63595       -4.29853       -4.50664
H         -0.15443       -4.39769       -3.58717
H         -1.53714       -6.40920       -3.29281
H         -1.23446       -5.60150       -1.77570
H         -3.51616       -6.34432       -1.78226
H         -3.50993       -4.60267       -1.79362
H         -5.22768       -5.28248       -3.28463
H         -3.95948       -4.59982       -4.27003
H         -3.16958       -6.82913       -4.94072
H         -4.86238       -6.61205       -5.33249
H         -2.81161       -9.10435       -4.48192
H         -3.41138      -11.19527       -3.32355
H         -5.45379      -11.32292       -1.94310
H         -6.37281       -7.23877       -2.92579
H         -8.14135       -9.61227       -2.14080
H         -7.20283      -10.09706       -0.70757
H         -7.49794       -8.38743       -1.01738

--Link1--
%chk=JID_8380.chk
%mem=8GB
%nprocshared=4
# B3LYP/6-311++G(d,p) empiricaldispersion=gd3bj scf=xqc pop=npa geom=check

CID_15173916_JID_8380_Energie_neutraal

0 1

--Link1--
%chk=JID_8380.chk
%mem=8GB
%nprocshared=4
# B3LYP/6-311++G(d,p) empiricaldispersion=gd3bj scf=xqc pop=npa geom=check

CID_15173916_JID_8380_Energie_kation

1 2

--Link1--
%chk=JID_8380.chk
%mem=8GB
%nprocshared=4
# B3LYP/6-311++G(d,p) empiricaldispersion=gd3bj scf=xqc pop=npa geom=check

CID_15173916_JID_8380_Energie_anion

-1 2
