%chk=JID_1137.chk
%mem=8GB
%nprocshared=4
# opt freq B3LYP/6-31G(d) empiricaldispersion=gd3bj scf=xqc

CID_143333898_JID_1137_neutraal

0 1
C         -3.74758       -2.45531        0.25301
C         -3.25491       -1.15818        0.90006
C         -4.19442       -0.76327        2.00520
C         -3.72734       -0.05568        3.05781
C         -4.28503        1.31025        3.11631
C         -3.68446        2.08599        2.17898
C         -4.25696        2.11272        0.77189
C         -3.49284        1.24405       -0.24417
C         -3.10054       -0.05685       -0.15944
C         -3.15097        2.01591       -1.50188
C         -2.26149        2.55802        2.32704
H         -4.72585       -2.32388       -0.22454
H         -3.84098       -3.25433        0.99740
H         -3.04635       -2.80097       -0.51504
H         -2.25552       -1.35384        1.31106
H         -5.21782       -0.60470        1.66174
H         -2.67826       -0.12420        3.34592
H         -5.37660        1.22367        3.07340
H         -5.31127        1.80745        0.75734
H         -4.25763        3.16122        0.44541
H         -2.52972       -0.43439       -1.01165
H         -2.62795        1.40543       -2.24540
H         -2.50446        2.86591       -1.25917
H         -4.06532        2.39355       -1.97175
H         -1.90398        2.43727        3.35557
H         -1.58084        2.00989        1.66912
H         -2.19789        3.62350        2.08311

--Link1--
%chk=JID_1137.chk
%mem=8GB
%nprocshared=4
# B3LYP/6-311++G(d,p) empiricaldispersion=gd3bj scf=xqc pop=npa geom=check

CID_143333898_JID_1137_Energie_neutraal

0 1

--Link1--
%chk=JID_1137.chk
%mem=8GB
%nprocshared=4
# B3LYP/6-311++G(d,p) empiricaldispersion=gd3bj scf=xqc pop=npa geom=check

CID_143333898_JID_1137_Energie_kation

1 2

--Link1--
%chk=JID_1137.chk
%mem=8GB
%nprocshared=4
# B3LYP/6-311++G(d,p) empiricaldispersion=gd3bj scf=xqc pop=npa geom=check

CID_143333898_JID_1137_Energie_anion

-1 2
