%chk=JID_10387.chk
%mem=8GB
%nprocshared=4
# opt freq B3LYP/6-31G(d) empiricaldispersion=gd3bj scf=xqc

CID_151834888_JID_10387_neutraal

0 1
C          0.92504       -0.03844        0.05388
N          1.41324       -0.96780        1.04758
C          0.42115       -1.39100        2.04722
C         -0.95835       -1.84532        1.51299
C         -1.39872       -3.21544        1.97624
C         -1.74621       -4.19303        1.03138
C         -2.14694       -5.46584        1.43802
C         -2.21363       -5.77380        2.79433
C         -1.88787       -4.80662        3.74365
C         -1.48872       -3.53118        3.33822
C          2.46108       -1.94484        0.71629
C          1.98320       -3.37018        0.38525
C          1.51889       -3.52054       -1.05274
C          2.67568       -3.23359       -2.00089
C          3.29417       -1.84516       -1.79275
C          3.53672       -1.49834       -0.30929
C          2.61667       -0.71292       -2.55249
O          3.07774        0.42120       -2.61589
O          1.46485       -1.10236       -3.15990
C          0.81441       -0.07332       -3.90680
H          0.20396        0.66142        0.49338
H          0.42715       -0.54136       -0.77733
H          1.73009        0.59245       -0.32924
H          0.86300       -2.13188        2.72509
H          0.24236       -0.51926        2.69226
H         -1.72185       -1.12163        1.82834
H         -0.97697       -1.82661        0.41811
H         -1.69752       -3.97139       -0.03261
H         -2.40528       -6.21587        0.69529
H         -2.52241       -6.76620        3.11136
H         -1.94453       -5.04635        4.80221
H         -1.24322       -2.78910        4.09435
H          3.01526       -2.04227        1.66202
H          2.81998       -4.06196        0.55749
H          1.20336       -3.70966        1.06901
H          0.67067       -2.86095       -1.25882
H          1.16836       -4.54655       -1.21445
H          2.34926       -3.37657       -3.03742
H          3.45606       -3.98743       -1.82869
H          4.28182       -1.89315       -2.27685
H          3.76872       -0.43406       -0.18107
H          4.46410       -2.01719       -0.02259
H          0.54758        0.76508       -3.25585
H          1.45207        0.26095       -4.73092
H         -0.10494       -0.49063       -4.32675

--Link1--
%chk=JID_10387.chk
%mem=8GB
%nprocshared=4
# B3LYP/6-311++G(d,p) empiricaldispersion=gd3bj scf=xqc pop=npa geom=check

CID_151834888_JID_10387_Energie_neutraal

0 1

--Link1--
%chk=JID_10387.chk
%mem=8GB
%nprocshared=4
# B3LYP/6-311++G(d,p) empiricaldispersion=gd3bj scf=xqc pop=npa geom=check

CID_151834888_JID_10387_Energie_kation

1 2

--Link1--
%chk=JID_10387.chk
%mem=8GB
%nprocshared=4
# B3LYP/6-311++G(d,p) empiricaldispersion=gd3bj scf=xqc pop=npa geom=check

CID_151834888_JID_10387_Energie_anion

-1 2
