%chk=JID_8682.chk
%mem=8GB
%nprocshared=4
# opt freq B3LYP/6-31G(d) empiricaldispersion=gd3bj scf=xqc

CID_19788698_JID_8682_neutraal

0 1
C          1.04862       -0.08491        0.02065
C          1.76147        0.99886        0.81079
O          2.05436        2.12239       -0.03176
C          3.14522        1.98281       -0.82538
O          3.89962        1.02414       -0.85860
C          3.25181        3.14191       -1.74267
C          3.88320        2.94918       -2.97518
C          3.98680        4.00443       -3.88303
C          3.48252        5.27155       -3.56256
C          2.86794        5.46275       -2.31601
C          2.74543        4.40342       -1.41218
C          3.60555        6.42279       -4.53194
C          4.87266        7.26168       -4.32843
C          6.16352        6.58971       -4.79512
C          6.27668        6.55689       -6.30765
O          6.44506        7.59370       -6.95364
C          6.09733        5.21641       -7.01071
O          6.85716        4.16972       -6.43828
H          0.15622        0.31959       -0.46817
H          0.74958       -0.90723        0.67689
H          1.68893       -0.48868       -0.76950
H          1.10520        1.36151        1.60886
H          2.67190        0.61884        1.28832
H          4.28750        1.97333       -3.23796
H          4.47099        3.82138       -4.83928
H          2.47357        6.43974       -2.04266
H          2.26026        4.57386       -0.45429
H          3.53688        6.05455       -5.56138
H          2.73130        7.07460       -4.40217
H          4.74679        8.20715       -4.87091
H          4.97481        7.52098       -3.26724
H          7.02355        7.16691       -4.43352
H          6.27898        5.58664       -4.37811
H          5.04008        4.94207       -6.97821
H          6.38635        5.32037       -8.06149
H          7.79058        4.33521       -6.66294

--Link1--
%chk=JID_8682.chk
%mem=8GB
%nprocshared=4
# B3LYP/6-311++G(d,p) empiricaldispersion=gd3bj scf=xqc pop=npa geom=check

CID_19788698_JID_8682_Energie_neutraal

0 1

--Link1--
%chk=JID_8682.chk
%mem=8GB
%nprocshared=4
# B3LYP/6-311++G(d,p) empiricaldispersion=gd3bj scf=xqc pop=npa geom=check

CID_19788698_JID_8682_Energie_kation

1 2

--Link1--
%chk=JID_8682.chk
%mem=8GB
%nprocshared=4
# B3LYP/6-311++G(d,p) empiricaldispersion=gd3bj scf=xqc pop=npa geom=check

CID_19788698_JID_8682_Energie_anion

-1 2
