%chk=JID_9746.chk
%mem=8GB
%nprocshared=4
# opt freq B3LYP/6-31G(d) empiricaldispersion=gd3bj scf=xqc

CID_64795416_JID_9746_neutraal

0 1
C          0.90884        0.03700        0.01792
C          0.34016       -1.31169       -0.48632
C          1.07569       -2.42914        0.26711
C         -1.15669       -1.31255       -0.15879
C          0.61952       -1.40742       -2.00007
O          1.29441       -0.55103       -2.58353
N          0.19943       -2.43478       -2.77976
C         -0.60429       -3.61194       -2.53378
C         -2.03367       -3.79310       -3.08935
O         -2.46390       -4.94835       -3.22941
N         -2.96193       -2.79934       -3.15530
C         -2.88631       -1.41380       -3.32553
C         -3.93785       -0.64718       -2.81305
C         -3.93079        0.74484       -2.93834
C         -2.88349        1.39039       -3.60464
C         -1.87591        0.61335       -4.18483
C         -1.89016       -0.78012       -4.05921
C         -2.87654        2.88911       -3.73769
O         -3.82576        3.30576       -4.70960
H          0.73809        0.16574        1.09300
H          0.43938        0.88349       -0.49739
H          1.98957        0.10509       -0.15435
H          1.01532       -2.27973        1.35140
H          0.66876       -3.42084        0.06001
H          2.13657       -2.45401       -0.00814
H         -1.67443       -0.51832       -0.70606
H         -1.64894       -2.25526       -0.40183
H         -1.32474       -1.13732        0.91043
H          0.55694       -2.33650       -3.72195
H         -0.01639       -4.43457       -2.95994
H         -0.67242       -3.79954       -1.46347
H         -3.90188       -3.18070       -3.12719
H         -4.75694       -1.11807       -2.27449
H         -4.74457        1.32588       -2.50803
H         -1.06903        1.08340       -4.74480
H         -1.13367       -1.34624       -4.58899
H         -3.12014        3.36159       -2.78030
H         -1.88960        3.25337       -4.04159
H         -4.00708        2.54515       -5.28776

--Link1--
%chk=JID_9746.chk
%mem=8GB
%nprocshared=4
# B3LYP/6-311++G(d,p) empiricaldispersion=gd3bj scf=xqc pop=npa geom=check

CID_64795416_JID_9746_Energie_neutraal

0 1

--Link1--
%chk=JID_9746.chk
%mem=8GB
%nprocshared=4
# B3LYP/6-311++G(d,p) empiricaldispersion=gd3bj scf=xqc pop=npa geom=check

CID_64795416_JID_9746_Energie_kation

1 2

--Link1--
%chk=JID_9746.chk
%mem=8GB
%nprocshared=4
# B3LYP/6-311++G(d,p) empiricaldispersion=gd3bj scf=xqc pop=npa geom=check

CID_64795416_JID_9746_Energie_anion

-1 2
