%chk=JID_4663.chk
%mem=8GB
%nprocshared=4
# opt freq B3LYP/6-31G(d) empiricaldispersion=gd3bj scf=xqc

CID_59882065_JID_4663_neutraal

0 1
C          2.54100        1.06400        0.00800
C          1.31483        0.23990       -0.31962
C          0.07256        0.80415       -0.76615
C         -0.98441       -0.10409       -1.06336
C         -0.79527       -1.49238       -0.88367
C          0.40211       -2.01057       -0.41608
C          1.44781       -1.14965       -0.13472
C         -2.34435        0.29193       -1.57427
C         -0.02273        2.32852       -0.93782
C         -1.02212        2.96429       -1.90546
S          0.10971        3.32257        0.61647
C         -1.34933        2.93216        1.65868
C         -2.66627        3.46028        1.10675
C         -1.44486        1.48269        2.11184
H          2.74454        1.81478       -0.75946
H          2.43146        1.53963        0.98618
H          3.43845        0.43568        0.05187
H         -1.60083       -2.19006       -1.10751
H          0.52014       -3.08130       -0.27759
H          2.38478       -1.56932        0.22670
H         -2.81911        1.00685       -0.90246
H         -2.27768        0.68782       -2.59032
H         -3.02497       -0.56641       -1.62170
H          0.91849        2.57866       -1.44399
H         -2.05681        2.91552       -1.57197
H         -0.79026        4.02541       -2.06111
H         -0.95872        2.48838       -2.89029
H         -1.15205        3.51585        2.56711
H         -3.05935        2.84011        0.30110
H         -3.42721        3.46183        1.89609
H         -2.57217        4.49015        0.74653
H         -0.47776        1.09609        2.44936
H         -2.13777        1.40320        2.95793
H         -1.83827        0.82979        1.33296

--Link1--
%chk=JID_4663.chk
%mem=8GB
%nprocshared=4
# B3LYP/6-311++G(d,p) empiricaldispersion=gd3bj scf=xqc pop=npa geom=check

CID_59882065_JID_4663_Energie_neutraal

0 1

--Link1--
%chk=JID_4663.chk
%mem=8GB
%nprocshared=4
# B3LYP/6-311++G(d,p) empiricaldispersion=gd3bj scf=xqc pop=npa geom=check

CID_59882065_JID_4663_Energie_kation

1 2

--Link1--
%chk=JID_4663.chk
%mem=8GB
%nprocshared=4
# B3LYP/6-311++G(d,p) empiricaldispersion=gd3bj scf=xqc pop=npa geom=check

CID_59882065_JID_4663_Energie_anion

-1 2
