%chk=JID_4302.chk
%mem=8GB
%nprocshared=4
# opt freq B3LYP/6-31G(d) empiricaldispersion=gd3bj scf=xqc

CID_102893581_JID_4302_neutraal

0 1
C          0.98815        0.09653        0.02327
N          2.34426        0.54895        0.36631
C          3.24708        0.31469       -0.76649
N          2.32602        1.91536        0.70164
C          2.66857        2.44653        1.92695
O          2.58442        3.67142        2.07342
C          3.22755        1.55611        3.05155
C          4.65363        1.07601        2.77233
C          5.73127        1.83281        3.55616
C          6.00583        0.97436        4.78319
C          5.86891       -0.44638        4.25361
C          4.69120       -0.37075        3.28736
C          3.33527       -0.58554        3.95139
N          2.42836        0.31724        3.24216
H          0.98592       -0.97801       -0.18977
H          0.58445        0.62677       -0.84720
H          0.30610        0.25617        0.86608
H          2.92704        0.85245       -1.66668
H          4.26489        0.63734       -0.52279
H          3.29998       -0.75448       -0.99924
H          1.96791        2.59548        0.03618
H          3.16908        2.13376        3.98298
H          4.89555        1.11335        1.70521
H          5.44250        2.85533        3.81737
H          6.64330        1.89355        2.94917
H          6.99592        1.16416        5.20750
H          5.25802        1.16994        5.56014
H          6.77813       -0.72094        3.70496
H          5.72432       -1.17844        5.05369
H          4.81419       -1.07614        2.45673
H          3.34714       -0.33068        5.01741
H          3.00440       -1.62540        3.86556
H          2.27613       -0.05128        2.29527

--Link1--
%chk=JID_4302.chk
%mem=8GB
%nprocshared=4
# B3LYP/6-311++G(d,p) empiricaldispersion=gd3bj scf=xqc pop=npa geom=check

CID_102893581_JID_4302_Energie_neutraal

0 1

--Link1--
%chk=JID_4302.chk
%mem=8GB
%nprocshared=4
# B3LYP/6-311++G(d,p) empiricaldispersion=gd3bj scf=xqc pop=npa geom=check

CID_102893581_JID_4302_Energie_kation

1 2

--Link1--
%chk=JID_4302.chk
%mem=8GB
%nprocshared=4
# B3LYP/6-311++G(d,p) empiricaldispersion=gd3bj scf=xqc pop=npa geom=check

CID_102893581_JID_4302_Energie_anion

-1 2
