%chk=JID_7847.chk
%mem=8GB
%nprocshared=4
# opt freq B3LYP/6-31G(d) empiricaldispersion=gd3bj scf=xqc

CID_129109614_JID_7847_neutraal

0 1
C          1.06122       -0.04633        0.06407
C          0.85639       -0.99696        1.23566
N         -0.37406       -1.16324        1.56802
C         -0.71451       -1.95052        2.76363
C         -2.01244       -1.38686        3.35946
C         -3.24515       -1.68648        2.51176
C         -3.37638       -3.17759        2.23204
C         -2.12082       -3.72684        1.56694
C         -0.85528       -3.45148        2.39774
N          0.30088       -3.91954        1.60060
C          1.50366       -3.86714        2.34583
C          1.84432       -5.00070        3.10230
C          2.99738       -5.02481        3.88365
C          3.81679       -3.90445        3.93357
C          3.47571       -2.76119        3.20729
C          2.31829       -2.71493        2.40420
N          2.02804       -1.47912        1.77683
H          1.38892        0.92461        0.44692
H          0.13144        0.08579       -0.49701
H          1.82625       -0.44312       -0.60980
H          0.05396       -1.81727        3.53508
H         -2.15908       -1.82061        4.35706
H         -1.92347       -0.30228        3.49634
H         -3.18795       -1.13688        1.56443
H         -4.14200       -1.33004        3.03111
H         -4.24352       -3.35622        1.58629
H         -3.56031       -3.71460        3.17058
H         -2.02081       -3.28580        0.56619
H         -2.23302       -4.80753        1.41384
H         -0.93319       -4.03752        3.32411
H          0.38861       -3.28233        0.80815
H          1.20430       -5.87914        3.06195
H          3.24961       -5.91605        4.45160
H          4.71350       -3.91263        4.54763
H          4.11631       -1.88629        3.29234
H          2.87815       -1.02896        1.45603

--Link1--
%chk=JID_7847.chk
%mem=8GB
%nprocshared=4
# B3LYP/6-311++G(d,p) empiricaldispersion=gd3bj scf=xqc pop=npa geom=check

CID_129109614_JID_7847_Energie_neutraal

0 1

--Link1--
%chk=JID_7847.chk
%mem=8GB
%nprocshared=4
# B3LYP/6-311++G(d,p) empiricaldispersion=gd3bj scf=xqc pop=npa geom=check

CID_129109614_JID_7847_Energie_kation

1 2

--Link1--
%chk=JID_7847.chk
%mem=8GB
%nprocshared=4
# B3LYP/6-311++G(d,p) empiricaldispersion=gd3bj scf=xqc pop=npa geom=check

CID_129109614_JID_7847_Energie_anion

-1 2
