%chk=JID_5537.chk
%mem=8GB
%nprocshared=4
# opt freq B3LYP/6-31G(d) empiricaldispersion=gd3bj scf=xqc

CID_115731128_JID_5537_neutraal

0 1
C          0.98413        0.07664        0.06224
C          0.41124        1.48647        0.07027
C          0.20190        1.95097       -1.37018
O         -0.81216        1.82617       -2.03895
O          1.30681        2.50693       -1.90787
N         -0.87072        1.50788        0.77790
C         -1.43780        2.52881        1.47579
O         -2.61349        2.42168        1.82796
C         -0.62081        3.73647        1.87189
C         -0.14463        3.61675        3.31391
C          0.94396        2.60885        3.49868
C          0.84207        1.39511        4.15376
S          2.35305        0.58586        4.13758
C          3.02224        1.89902        3.26362
N          2.19895        2.88324        2.97617
H          0.31858       -0.62115       -0.45893
H          1.12155       -0.29573        1.08234
H          1.95379        0.05057       -0.44615
H          1.11037        2.16768        0.55688
H          1.03494        2.74451       -2.81993
H         -1.56360        0.82938        0.47906
H          0.20329        3.92082        1.17915
H         -1.28324        4.60672        1.78074
H          0.23539        4.59192        3.64301
H         -0.98805        3.37365        3.97239
H         -0.02455        0.96037        4.63210
H          4.06225        1.90940        2.96451

--Link1--
%chk=JID_5537.chk
%mem=8GB
%nprocshared=4
# B3LYP/6-311++G(d,p) empiricaldispersion=gd3bj scf=xqc pop=npa geom=check

CID_115731128_JID_5537_Energie_neutraal

0 1

--Link1--
%chk=JID_5537.chk
%mem=8GB
%nprocshared=4
# B3LYP/6-311++G(d,p) empiricaldispersion=gd3bj scf=xqc pop=npa geom=check

CID_115731128_JID_5537_Energie_kation

1 2

--Link1--
%chk=JID_5537.chk
%mem=8GB
%nprocshared=4
# B3LYP/6-311++G(d,p) empiricaldispersion=gd3bj scf=xqc pop=npa geom=check

CID_115731128_JID_5537_Energie_anion

-1 2
