%chk=JID_8611.chk
%mem=8GB
%nprocshared=4
# opt freq B3LYP/6-31G(d) empiricaldispersion=gd3bj scf=xqc

CID_54085920_JID_8611_neutraal

0 1
C          2.54100       -1.13900        0.05100
C          1.28871       -0.44224        0.52440
C          1.30506        0.87256        1.03575
C          0.08520        1.46402        1.41820
C         -1.13187        0.78581        1.32749
C         -1.19023       -0.50697        0.81319
C          0.03707       -1.12089        0.48422
N         -0.00112       -2.51771        0.07111
O         -0.72970       -2.80312       -0.89268
O          0.69238       -3.32532        0.70550
N         -2.41965       -1.18841        0.87164
N          2.44698        1.68623        1.19628
C          2.81250        2.37141       -0.07129
C          3.58519        3.67586        0.16943
O          4.95986        3.41241        0.45075
C          3.56504        1.09463        1.97677
C          3.89987        1.99299        3.17811
O          2.74401        2.17569        3.99766
H          2.94708       -1.77140        0.84639
H          2.34113       -1.75421       -0.83287
H          3.31692       -0.43963       -0.26350
H          0.08658        2.47774        1.81606
H         -2.03429        1.28403        1.67373
H         -2.50541       -1.94954        0.19478
H         -3.23447       -0.58143        0.84059
H          3.40194        1.70499       -0.71053
H          1.89812        2.63846       -0.61738
H          3.55272        4.29108       -0.73557
H          3.15436        4.24629        0.99862
H          5.38123        4.27404        0.61682
H          3.27815        0.11785        2.38497
H          4.45441        0.94606        1.35492
H          4.68264        1.53500        3.79001
H          4.24356        2.98242        2.86980
H          2.00690        2.24955        3.36006

--Link1--
%chk=JID_8611.chk
%mem=8GB
%nprocshared=4
# B3LYP/6-311++G(d,p) empiricaldispersion=gd3bj scf=xqc pop=npa geom=check

CID_54085920_JID_8611_Energie_neutraal

0 1

--Link1--
%chk=JID_8611.chk
%mem=8GB
%nprocshared=4
# B3LYP/6-311++G(d,p) empiricaldispersion=gd3bj scf=xqc pop=npa geom=check

CID_54085920_JID_8611_Energie_kation

1 2

--Link1--
%chk=JID_8611.chk
%mem=8GB
%nprocshared=4
# B3LYP/6-311++G(d,p) empiricaldispersion=gd3bj scf=xqc pop=npa geom=check

CID_54085920_JID_8611_Energie_anion

-1 2
