%chk=JID_4805.chk
%mem=8GB
%nprocshared=4
# opt freq B3LYP/6-31G(d) empiricaldispersion=gd3bj scf=xqc

CID_83182220_JID_4805_neutraal

0 1
C          0.95129        0.08734        0.00005
C          0.53325        1.48009        0.50311
C          1.46608        2.49729       -0.15123
C         -1.02405        1.76399        0.40818
C         -1.69205        0.78164        1.44599
C         -1.43168        3.17479        0.94568
C         -1.28782        4.47770        0.21058
C         -0.58027        4.86192       -0.91044
O         -0.73899        6.18381       -1.17675
C         -1.54381        6.68622       -0.21280
C         -1.90976        5.69193        0.65860
C         -1.69441        1.37066       -0.94694
N         -1.23669        2.07004       -2.14287
C         -1.69171        1.39478       -3.35481
H          0.79170       -0.01606       -1.07795
H          0.41404       -0.71722        0.50723
H          2.01744       -0.08472        0.18890
H          0.79032        1.50432        1.57235
H          1.30910        2.56076       -1.23024
H          1.36465        3.48396        0.30462
H          2.51343        2.20792       -0.00175
H         -1.28174        0.92667        2.45195
H         -2.77543        0.94321        1.50643
H         -1.55343       -0.26944        1.17546
H         -2.50493        3.12418        1.18898
H         -0.92950        3.31560        1.91469
H          0.06552        4.35248       -1.61038
H         -1.75310        7.74480       -0.27845
H         -2.54015        5.81710        1.52861
H         -1.55255        0.29198       -1.09654
H         -2.78018        1.51657       -0.85991
H         -1.64913        3.00361       -2.14438
H         -2.78334        1.31296       -3.38399
H         -1.37370        1.96808       -4.23119
H         -1.25338        0.39520       -3.43917

--Link1--
%chk=JID_4805.chk
%mem=8GB
%nprocshared=4
# B3LYP/6-311++G(d,p) empiricaldispersion=gd3bj scf=xqc pop=npa geom=check

CID_83182220_JID_4805_Energie_neutraal

0 1

--Link1--
%chk=JID_4805.chk
%mem=8GB
%nprocshared=4
# B3LYP/6-311++G(d,p) empiricaldispersion=gd3bj scf=xqc pop=npa geom=check

CID_83182220_JID_4805_Energie_kation

1 2

--Link1--
%chk=JID_4805.chk
%mem=8GB
%nprocshared=4
# B3LYP/6-311++G(d,p) empiricaldispersion=gd3bj scf=xqc pop=npa geom=check

CID_83182220_JID_4805_Energie_anion

-1 2
