%chk=JID_6967.chk
%mem=8GB
%nprocshared=4
# opt freq B3LYP/6-31G(d) empiricaldispersion=gd3bj scf=xqc

CID_79511732_JID_6967_neutraal

0 1
C          1.00948       -0.08666       -0.04899
C          0.43588       -0.57073        1.27710
C          1.05203        0.13909        2.50118
C          0.82984        1.67423        2.52388
N         -0.52692        2.13756        2.22529
C          0.60968       -0.52418        3.79329
N         -0.30989       -0.06704        4.61475
C         -0.44691       -0.90509        5.70612
C          0.38596       -2.02200        5.70985
S          1.37056       -1.98898        4.30029
C          0.35352       -2.96500        6.75038
C         -0.53597       -2.76826        7.81435
C         -1.37102       -1.65384        7.83059
C         -1.33438       -0.72146        6.78402
O         -0.48517       -3.74412        8.77399
C         -1.35068       -3.59600        9.89280
H          0.76619        0.96227       -0.23899
H          0.59612       -0.67696       -0.87319
H          2.09831       -0.19755       -0.06787
H         -0.65493       -0.45652        1.27078
H          0.62227       -1.65020        1.34349
H          2.14267        0.00456        2.44104
H          1.12564        2.07493        3.50110
H          1.50185        2.13610        1.79040
H         -0.57209        3.15012        2.32281
H         -0.77827        1.92291        1.26338
H          1.00753       -3.83166        6.73413
H         -2.06940       -1.47193        8.64088
H         -1.98502        0.14761        6.79264
H         -1.11578       -2.68617       10.45501
H         -2.40129       -3.61157        9.58466
H         -1.18655       -4.44969       10.55743

--Link1--
%chk=JID_6967.chk
%mem=8GB
%nprocshared=4
# B3LYP/6-311++G(d,p) empiricaldispersion=gd3bj scf=xqc pop=npa geom=check

CID_79511732_JID_6967_Energie_neutraal

0 1

--Link1--
%chk=JID_6967.chk
%mem=8GB
%nprocshared=4
# B3LYP/6-311++G(d,p) empiricaldispersion=gd3bj scf=xqc pop=npa geom=check

CID_79511732_JID_6967_Energie_kation

1 2

--Link1--
%chk=JID_6967.chk
%mem=8GB
%nprocshared=4
# B3LYP/6-311++G(d,p) empiricaldispersion=gd3bj scf=xqc pop=npa geom=check

CID_79511732_JID_6967_Energie_anion

-1 2
