%chk=JID_4543.chk
%mem=8GB
%nprocshared=4
# opt freq B3LYP/6-31G(d) empiricaldispersion=gd3bj scf=xqc

CID_59049724_JID_4543_neutraal

0 1
C          1.08328       -0.04117       -0.03701
C          0.66683        1.38409        0.39109
C          1.28679        2.36060       -0.63291
C         -0.87180        1.46255        0.30029
C          1.11320        1.76400        1.81704
C          0.86628        3.06982        2.30033
C          1.28007        3.39350        3.57311
C          1.91147        2.45007        4.41068
C          2.13983        1.16507        3.99143
C          1.74823        0.83171        2.68528
N          2.13224        3.04888        5.66702
C          1.77745        4.38833        5.50986
C          2.11100        5.36395        6.35966
N          1.10453        4.58714        4.30443
H          0.76469       -0.25389       -1.06464
H          0.62690       -0.80573        0.60231
H          2.17134       -0.17022       -0.00196
H          1.01801        2.08104       -1.65842
H          0.94548        3.39089       -0.48547
H          2.38103        2.36220       -0.56340
H         -1.34481        0.79408        1.02950
H         -1.24561        2.47446        0.49211
H         -1.22443        1.17211       -0.69624
H          0.35207        3.81191        1.70065
H          2.59448        0.42915        4.64302
H          1.93757       -0.18951        2.36381
H          2.98366        2.83913        6.16468
H          2.65515        5.15062        7.27204
H          1.82577        6.39230        6.17210
H          1.23222        5.46884        3.83204

--Link1--
%chk=JID_4543.chk
%mem=8GB
%nprocshared=4
# B3LYP/6-311++G(d,p) empiricaldispersion=gd3bj scf=xqc pop=npa geom=check

CID_59049724_JID_4543_Energie_neutraal

0 1

--Link1--
%chk=JID_4543.chk
%mem=8GB
%nprocshared=4
# B3LYP/6-311++G(d,p) empiricaldispersion=gd3bj scf=xqc pop=npa geom=check

CID_59049724_JID_4543_Energie_kation

1 2

--Link1--
%chk=JID_4543.chk
%mem=8GB
%nprocshared=4
# B3LYP/6-311++G(d,p) empiricaldispersion=gd3bj scf=xqc pop=npa geom=check

CID_59049724_JID_4543_Energie_anion

-1 2
