%chk=JID_1386.chk
%mem=8GB
%nprocshared=4
# opt freq B3LYP/6-31G(d) empiricaldispersion=gd3bj scf=xqc

CID_143794309_JID_1386_neutraal

0 1
C          1.07276       -0.06651       -0.01678
C          1.17641        1.40242        0.32530
C          0.46573        1.15054       -4.19810
C         -0.76610        0.95425       -3.36377
C         -1.24230       -0.31119       -2.99092
N         -2.35328       -0.47011       -2.22589
C         -3.00868        0.63652       -1.81978
C         -2.61510        1.92038       -2.13821
C         -1.47882        2.07805       -2.92126
C         -0.56566       -1.55958       -3.39487
C         -0.95771       -2.78883       -3.02931
H          1.63026       -0.66921        0.70638
H          0.02863       -0.39206       -0.00167
H          1.48283       -0.25933       -1.01234
H          0.62146        2.00709       -0.39758
H          0.76662        1.59458        1.32135
H          2.22136        1.72637        0.31451
H          1.34141        0.73362       -3.69022
H          0.34510        0.67491       -5.17662
H          0.66682        2.21278       -4.37464
H         -3.88872        0.45414       -1.21028
H         -3.17746        2.77707       -1.78538
H         -1.14910        3.08089       -3.18182
H          0.30947       -1.46866       -4.02791
H         -0.41464       -3.66738       -3.35927
H         -1.82514       -2.94548       -2.39433

--Link1--
%chk=JID_1386.chk
%mem=8GB
%nprocshared=4
# B3LYP/6-311++G(d,p) empiricaldispersion=gd3bj scf=xqc pop=npa geom=check

CID_143794309_JID_1386_Energie_neutraal

0 1

--Link1--
%chk=JID_1386.chk
%mem=8GB
%nprocshared=4
# B3LYP/6-311++G(d,p) empiricaldispersion=gd3bj scf=xqc pop=npa geom=check

CID_143794309_JID_1386_Energie_kation

1 2

--Link1--
%chk=JID_1386.chk
%mem=8GB
%nprocshared=4
# B3LYP/6-311++G(d,p) empiricaldispersion=gd3bj scf=xqc pop=npa geom=check

CID_143794309_JID_1386_Energie_anion

-1 2
