%chk=JID_9853.chk
%mem=8GB
%nprocshared=4
# opt freq B3LYP/6-31G(d) empiricaldispersion=gd3bj scf=xqc

CID_60966484_JID_9853_neutraal

0 1
C          0.94808       -0.03765        0.07672
C          0.03923        0.16926       -1.13323
C          0.05424       -1.04500       -2.11617
N         -1.02279       -2.05625       -1.95332
C         -0.88401       -2.88859       -0.73691
C          0.28279       -3.88829       -0.78756
O          0.17557       -4.75015       -1.92740
C          0.11466       -3.99095       -3.14061
C         -1.04696       -2.98012       -3.11664
N         -1.32608        0.41151       -0.67014
C         -1.82211        1.70672       -0.66264
C         -3.20089        1.96675       -0.52052
C         -4.34882        1.11614       -0.35464
C         -5.52439        1.82555       -0.23998
S         -5.26160        3.51236       -0.33693
C         -3.57884        3.30027       -0.51791
N         -2.76779        4.36377       -0.63678
C         -1.48700        4.00395       -0.74717
N         -0.98002        2.76093       -0.76126
H          0.60491       -0.83818        0.73566
H          0.99134        0.87501        0.68195
H          1.96926       -0.27293       -0.24071
H          0.43409        1.02149       -1.70186
H         -0.08825       -0.60221       -3.11237
H          1.05297       -1.49598       -2.13453
H         -1.81613       -3.46064       -0.63391
H         -0.82742       -2.27514        0.16427
H          1.25440       -3.38231       -0.80576
H          0.26100       -4.52271        0.10438
H         -0.03254       -4.69879       -3.96274
H          1.07928       -3.49753       -3.30411
H         -1.99093       -3.53865       -3.06967
H         -1.07640       -2.41675       -4.05673
H         -1.98317       -0.29250       -1.00242
H         -4.30308        0.03495       -0.31123
H         -6.52412        1.43706       -0.10137
H         -0.76809        4.81220       -0.83852

--Link1--
%chk=JID_9853.chk
%mem=8GB
%nprocshared=4
# B3LYP/6-311++G(d,p) empiricaldispersion=gd3bj scf=xqc pop=npa geom=check

CID_60966484_JID_9853_Energie_neutraal

0 1

--Link1--
%chk=JID_9853.chk
%mem=8GB
%nprocshared=4
# B3LYP/6-311++G(d,p) empiricaldispersion=gd3bj scf=xqc pop=npa geom=check

CID_60966484_JID_9853_Energie_kation

1 2

--Link1--
%chk=JID_9853.chk
%mem=8GB
%nprocshared=4
# B3LYP/6-311++G(d,p) empiricaldispersion=gd3bj scf=xqc pop=npa geom=check

CID_60966484_JID_9853_Energie_anion

-1 2
