%chk=JID_10210.chk
%mem=8GB
%nprocshared=4
# opt freq B3LYP/6-31G(d) empiricaldispersion=gd3bj scf=xqc

CID_133459163_JID_10210_neutraal

0 1
C          1.79800        0.08100        0.66400
C          0.80282        0.13535       -0.49644
O         -0.06903        1.25635       -0.27424
C         -1.38115        0.70279       -0.12829
C         -1.15176       -0.73933        0.23370
O          0.02332       -1.07173       -0.50398
C          1.57069        0.25266       -1.81961
C          0.70987        0.68435       -3.00680
N          0.45277        2.12119       -2.90975
C         -0.12435        2.75034       -4.01277
N         -0.27238        2.04128       -5.15655
C         -0.72356        2.66277       -6.26945
C         -1.05112        4.00304       -6.31654
C         -0.90768        4.74997       -5.14983
C         -0.43456        4.10913       -4.00306
N         -0.26443        4.85403       -2.78529
O         -1.01162        4.55974       -1.84196
O          0.58946        5.74917       -2.78413
C         -1.26781        6.13540       -5.16577
N         -1.58738        7.24955       -5.20379
H          2.40108        0.99406        0.71262
H          1.27904       -0.00639        1.62505
H          2.46207       -0.78538        0.57622
H         -1.88997        0.79162       -1.09374
H         -1.95018        1.25280        0.62543
H         -1.98233       -1.39304       -0.04417
H         -0.94303       -0.86335        1.30180
H          2.39095        0.97444       -1.71226
H          2.02021       -0.72061       -2.05480
H          1.27552        0.46547       -3.92080
H         -0.22884        0.11937       -3.04146
H         -0.03059        2.33940       -2.03099
H         -0.81049        2.02918       -7.14887
H         -1.40837        4.44705       -7.24132

--Link1--
%chk=JID_10210.chk
%mem=8GB
%nprocshared=4
# B3LYP/6-311++G(d,p) empiricaldispersion=gd3bj scf=xqc pop=npa geom=check

CID_133459163_JID_10210_Energie_neutraal

0 1

--Link1--
%chk=JID_10210.chk
%mem=8GB
%nprocshared=4
# B3LYP/6-311++G(d,p) empiricaldispersion=gd3bj scf=xqc pop=npa geom=check

CID_133459163_JID_10210_Energie_kation

1 2

--Link1--
%chk=JID_10210.chk
%mem=8GB
%nprocshared=4
# B3LYP/6-311++G(d,p) empiricaldispersion=gd3bj scf=xqc pop=npa geom=check

CID_133459163_JID_10210_Energie_anion

-1 2
