%chk=JID_8834.chk
%mem=8GB
%nprocshared=4
# opt freq B3LYP/6-31G(d) empiricaldispersion=gd3bj scf=xqc

CID_57847872_JID_8834_neutraal

0 1
C          0.93106        0.06990        0.01900
C          0.40542        1.47980        0.03027
O         -0.60307        1.76978        0.68673
C          1.08985        2.56183       -0.73892
C          2.13513        2.44380       -1.58636
C          2.70655        3.69940       -2.28191
C          2.28339        5.10995       -1.81386
C          2.74554        5.60015       -0.45653
C          3.59231        4.87025        0.37804
C          3.98667        5.37816        1.62184
C          3.55578        6.63706        2.07909
C          2.71073        7.36620        1.22965
C          2.31433        6.85720       -0.01434
C          4.00301        7.15201        3.45591
C          3.52478        6.17861        4.55502
C          5.54334        7.24958        3.49949
C          3.44668        8.54975        3.80985
O          2.78514        1.42631       -1.95169
H          0.33815       -0.53527        0.71286
H          1.96704        0.04305        0.36534
H          0.82847       -0.36787       -0.97669
H          0.63354        3.52348       -0.54138
H          3.80740        3.66896       -2.25826
H          2.42902        3.63228       -3.34589
H          2.68625        5.81906       -2.55080
H          1.19151        5.20144       -1.87326
H          3.94647        3.88262        0.08440
H          4.63590        4.75476        2.23223
H          2.33074        8.34371        1.50900
H          1.65326        7.45091       -0.64169
H          3.96373        5.18092        4.44480
H          3.80089        6.54154        5.55198
H          2.43466        6.06264        4.53226
H          5.91913        7.91159        2.71031
H          5.88712        7.64827        4.46113
H          6.02446        6.27428        3.36721
H          3.77248        9.30816        3.08844
H          2.35076        8.55282        3.83729
H          3.79411        8.87467        4.79798

--Link1--
%chk=JID_8834.chk
%mem=8GB
%nprocshared=4
# B3LYP/6-311++G(d,p) empiricaldispersion=gd3bj scf=xqc pop=npa geom=check

CID_57847872_JID_8834_Energie_neutraal

0 1

--Link1--
%chk=JID_8834.chk
%mem=8GB
%nprocshared=4
# B3LYP/6-311++G(d,p) empiricaldispersion=gd3bj scf=xqc pop=npa geom=check

CID_57847872_JID_8834_Energie_kation

1 2

--Link1--
%chk=JID_8834.chk
%mem=8GB
%nprocshared=4
# B3LYP/6-311++G(d,p) empiricaldispersion=gd3bj scf=xqc pop=npa geom=check

CID_57847872_JID_8834_Energie_anion

-1 2
