%chk=JID_1484.chk
%mem=8GB
%nprocshared=4
# opt freq B3LYP/6-31G(d) empiricaldispersion=gd3bj scf=xqc

CID_63115532_JID_1484_neutraal

0 1
C          0.95627        0.00609       -0.08972
C          0.50692        0.46288       -1.47644
C          1.62678        0.26384       -2.52565
C          2.03773       -1.18107       -2.83903
N          1.13132       -1.82900       -3.77678
S         -1.11140       -0.17725       -2.09878
C         -1.83692       -1.05354       -0.67182
C         -3.33565       -1.29106       -0.91939
C         -3.62019       -2.62420       -0.24525
C         -2.38943       -3.43937       -0.59546
C         -1.23768       -2.45089       -0.44354
H          1.08766       -1.07615       -0.02337
H          0.25419        0.32544        0.68607
H          1.92068        0.46185        0.16362
H          0.34929        1.54649       -1.40321
H          1.35847        0.78259       -3.45637
H          2.52144        0.78478       -2.15741
H          3.03479       -1.17440       -3.29299
H          2.10993       -1.77467       -1.92302
H          1.27932       -2.83570       -3.76851
H          0.16434       -1.66992       -3.47979
H         -1.73527       -0.43784        0.22707
H         -3.95206       -0.48764       -0.50279
H         -3.57361       -1.37571       -1.98747
H         -4.54313       -3.08548       -0.60773
H         -3.69975       -2.49559        0.84051
H         -2.44924       -3.78495       -1.63456
H         -2.27130       -4.31648        0.04723
H         -0.41230       -2.70778       -1.11493
H         -0.84992       -2.50978        0.58110

--Link1--
%chk=JID_1484.chk
%mem=8GB
%nprocshared=4
# B3LYP/6-311++G(d,p) empiricaldispersion=gd3bj scf=xqc pop=npa geom=check

CID_63115532_JID_1484_Energie_neutraal

0 1

--Link1--
%chk=JID_1484.chk
%mem=8GB
%nprocshared=4
# B3LYP/6-311++G(d,p) empiricaldispersion=gd3bj scf=xqc pop=npa geom=check

CID_63115532_JID_1484_Energie_kation

1 2

--Link1--
%chk=JID_1484.chk
%mem=8GB
%nprocshared=4
# B3LYP/6-311++G(d,p) empiricaldispersion=gd3bj scf=xqc pop=npa geom=check

CID_63115532_JID_1484_Energie_anion

-1 2
