%chk=JID_4064.chk
%mem=8GB
%nprocshared=4
# opt freq B3LYP/6-31G(d) empiricaldispersion=gd3bj scf=xqc

CID_79599315_JID_4064_neutraal

0 1
C          1.06828        0.06615        0.03102
C          0.51765        0.81508        1.24838
C          1.15662        2.20448        1.32717
C         -1.01794        0.95025        1.21044
N         -1.67637       -0.35356        1.28420
C         -3.14113       -0.25839        1.29037
C         -3.79771        0.28057        0.00469
C         -3.41392       -0.47468       -1.24076
C         -4.27676       -1.17650       -1.99238
C         -3.88834       -1.90599       -3.25072
C         -4.12860       -3.41795       -3.17211
C         -5.58770       -3.77862       -3.19856
C         -6.35035       -3.78205       -4.49800
C         -6.03089       -5.08159       -3.81244
H          0.75133        0.54117       -0.90366
H          0.73358       -0.97549        0.01504
H          2.16355        0.05244        0.04770
H          0.80518        0.26236        2.15231
H          0.91012        2.80616        0.44559
H          0.80815        2.74365        2.21440
H          2.24731        2.12857        1.39152
H         -1.34074        1.56296        2.06108
H         -1.30355        1.47906        0.29391
H         -1.38652       -0.94187        0.50511
H         -3.53022       -1.26628        1.48140
H         -3.46402        0.35197        2.14274
H         -4.88621        0.25497        0.14177
H         -3.53778        1.33604       -0.13674
H         -2.37091       -0.41046       -1.54324
H         -5.32586       -1.21995       -1.70777
H         -4.45058       -1.47782       -4.08902
H         -2.82565       -1.73742       -3.46555
H         -3.61527       -3.89118       -4.01880
H         -3.67482       -3.82831       -2.26174
H         -6.10846       -3.45898       -2.30263
H         -7.37822       -3.43747       -4.48233
H         -5.82050       -3.54991       -5.41493
H         -5.28698       -5.72562       -4.26744
H         -6.84439       -5.61639       -3.33499

--Link1--
%chk=JID_4064.chk
%mem=8GB
%nprocshared=4
# B3LYP/6-311++G(d,p) empiricaldispersion=gd3bj scf=xqc pop=npa geom=check

CID_79599315_JID_4064_Energie_neutraal

0 1

--Link1--
%chk=JID_4064.chk
%mem=8GB
%nprocshared=4
# B3LYP/6-311++G(d,p) empiricaldispersion=gd3bj scf=xqc pop=npa geom=check

CID_79599315_JID_4064_Energie_kation

1 2

--Link1--
%chk=JID_4064.chk
%mem=8GB
%nprocshared=4
# B3LYP/6-311++G(d,p) empiricaldispersion=gd3bj scf=xqc pop=npa geom=check

CID_79599315_JID_4064_Energie_anion

-1 2
