%chk=JID_8776.chk
%mem=8GB
%nprocshared=4
# opt freq B3LYP/6-31G(d) empiricaldispersion=gd3bj scf=xqc

CID_113814769_JID_8776_neutraal

0 1
C          0.95204       -0.06870        0.05459
C         -0.20666       -0.50726        0.94214
C          0.05482       -0.32518        2.43251
C         -1.57978        0.05255        0.48310
O         -2.43023       -0.75973        0.07480
N         -1.95655        1.35107        0.47870
C         -1.26581        2.45642        0.86298
N         -0.05798        2.56187        1.33787
C          0.22518        3.89318        1.59461
C         -0.80261        4.78965        1.29814
S         -2.14690        3.90570        0.68291
C         -0.66257        6.17096        1.50536
C          0.54390        6.65650        2.02550
C          1.58072        5.77671        2.32721
C          1.43165        4.39846        2.11587
O          0.57460        8.01549        2.18924
C          1.76721        8.57702        2.72390
O         -0.28032       -1.94956        0.75889
H          1.24455        0.97167        0.19311
H          0.69564       -0.20141       -1.00322
H          1.83799       -0.68807        0.23870
H          0.30585        0.69664        2.71502
H         -0.82537       -0.62222        3.01497
H          0.87768       -0.96989        2.76383
H         -2.89529        1.50853        0.13880
H         -1.47288        6.85458        1.26891
H          2.52680        6.12388        2.73067
H          2.24099        3.71395        2.35179
H          1.96191        8.20126        3.73380
H          2.62012        8.39486        2.06185
H          1.62483        9.65976        2.79323
H         -1.17580       -2.13510        0.40426

--Link1--
%chk=JID_8776.chk
%mem=8GB
%nprocshared=4
# B3LYP/6-311++G(d,p) empiricaldispersion=gd3bj scf=xqc pop=npa geom=check

CID_113814769_JID_8776_Energie_neutraal

0 1

--Link1--
%chk=JID_8776.chk
%mem=8GB
%nprocshared=4
# B3LYP/6-311++G(d,p) empiricaldispersion=gd3bj scf=xqc pop=npa geom=check

CID_113814769_JID_8776_Energie_kation

1 2

--Link1--
%chk=JID_8776.chk
%mem=8GB
%nprocshared=4
# B3LYP/6-311++G(d,p) empiricaldispersion=gd3bj scf=xqc pop=npa geom=check

CID_113814769_JID_8776_Energie_anion

-1 2
