%chk=JID_2959.chk
%mem=8GB
%nprocshared=4
# opt freq B3LYP/6-31G(d) empiricaldispersion=gd3bj scf=xqc

CID_148172117_JID_2959_neutraal

0 1
C          1.09836       -0.01560       -0.00902
C          0.53827       -1.42602        0.23544
C          1.08673       -1.89189        1.59509
C         -1.02901       -1.53909        0.18071
C         -1.67108       -0.38432       -0.61235
C         -1.52178       -2.91567       -0.40912
C         -0.91711       -4.14348        0.28889
C         -3.06405       -3.04825       -0.42118
C         -3.80253       -2.66704       -1.75820
N         -3.62131       -3.97848       -1.32716
C         -4.40004       -4.97723       -1.21003
C         -3.76886       -2.87938        0.90534
H          0.71751        0.70061        0.72673
H          0.85377        0.34384       -1.01335
H          2.19189       -0.01633        0.06595
H          0.96334       -2.07000       -0.54477
H          0.73396       -1.24117        2.40286
H          0.79419       -2.91243        1.84355
H          2.18221       -1.86377        1.59888
H         -1.39957       -1.45274        1.21007
H         -1.36113       -0.40463       -1.66243
H         -2.76316       -0.42785       -0.58111
H         -1.40862        0.58960       -0.18830
H         -1.16854       -2.95362       -1.45064
H         -1.10550       -4.12442        1.36677
H         -1.34699       -5.07329       -0.09929
H          0.16148       -4.20771        0.11995
H         -4.82584       -2.31780       -1.79086
H         -3.18987       -2.33226       -2.58810
H         -5.16850       -5.15857       -1.97503
H         -4.27894       -5.66256       -0.35879
H         -3.40837       -3.60699        1.63903
H         -3.60990       -1.87503        1.30824
H         -4.85387       -3.00969        0.81437

--Link1--
%chk=JID_2959.chk
%mem=8GB
%nprocshared=4
# B3LYP/6-311++G(d,p) empiricaldispersion=gd3bj scf=xqc pop=npa geom=check

CID_148172117_JID_2959_Energie_neutraal

0 1

--Link1--
%chk=JID_2959.chk
%mem=8GB
%nprocshared=4
# B3LYP/6-311++G(d,p) empiricaldispersion=gd3bj scf=xqc pop=npa geom=check

CID_148172117_JID_2959_Energie_kation

1 2

--Link1--
%chk=JID_2959.chk
%mem=8GB
%nprocshared=4
# B3LYP/6-311++G(d,p) empiricaldispersion=gd3bj scf=xqc pop=npa geom=check

CID_148172117_JID_2959_Energie_anion

-1 2
