%chk=JID_8042.chk
%mem=8GB
%nprocshared=4
# opt freq B3LYP/6-31G(d) empiricaldispersion=gd3bj scf=xqc

CID_80398081_JID_8042_neutraal

0 1
C          0.98448       -0.06845       -0.07123
C          0.58245       -1.40136       -0.70761
C          1.49406       -2.58102       -0.26923
O          1.09685       -3.55300        0.37871
N          2.80534       -2.61366       -0.63609
C          3.62614       -1.66018       -1.34909
C          4.53229       -0.99643       -0.37699
C          4.79184        0.32157       -0.05968
C          5.75317        0.30315        0.97985
C          6.03051       -1.02098        1.22236
O          5.30339       -1.81724        0.39824
N         -0.86958       -1.65574       -0.54269
C         -1.35254       -2.84116       -1.24161
C         -1.50783       -1.43963        0.76251
C         -1.29854       -2.44431        1.90726
C         -0.12614       -2.16336        2.85396
N         -0.35160       -0.96721        3.67629
C          0.75865       -0.76720        4.60086
H          1.12182       -0.15220        1.01015
H          0.23689        0.70838       -0.26949
H          1.91858        0.31178       -0.48525
H          0.73878       -1.29070       -1.78921
H          3.29784       -3.40236       -0.23340
H          4.21920       -2.22518       -2.07556
H          3.01385       -0.94329       -1.89829
H          4.33535        1.19063       -0.51285
H          6.19003        1.14926        1.49157
H          6.68557       -1.53582        1.91161
H         -1.08002       -3.77901       -0.75082
H         -2.44511       -2.81550       -1.32502
H         -0.97055       -2.87034       -2.26825
H         -1.30918       -0.42135        1.11190
H         -2.58983       -1.42218        0.56684
H         -2.21782       -2.46118        2.50978
H         -1.20890       -3.46162        1.51185
H         -0.01841       -3.03233        3.51492
H          0.80966       -2.05711        2.30318
H         -0.42774       -0.14858        3.07554
H          1.70359       -0.62016        4.06713
H          0.57243        0.12523        5.20619
H          0.86225       -1.61451        5.28637

--Link1--
%chk=JID_8042.chk
%mem=8GB
%nprocshared=4
# B3LYP/6-311++G(d,p) empiricaldispersion=gd3bj scf=xqc pop=npa geom=check

CID_80398081_JID_8042_Energie_neutraal

0 1

--Link1--
%chk=JID_8042.chk
%mem=8GB
%nprocshared=4
# B3LYP/6-311++G(d,p) empiricaldispersion=gd3bj scf=xqc pop=npa geom=check

CID_80398081_JID_8042_Energie_kation

1 2

--Link1--
%chk=JID_8042.chk
%mem=8GB
%nprocshared=4
# B3LYP/6-311++G(d,p) empiricaldispersion=gd3bj scf=xqc pop=npa geom=check

CID_80398081_JID_8042_Energie_anion

-1 2
