%chk=JID_6375.chk
%mem=8GB
%nprocshared=4
# opt freq B3LYP/6-31G(d) empiricaldispersion=gd3bj scf=xqc

CID_148098094_JID_6375_neutraal

0 1
C          2.54100        0.50500       -0.00100
C          1.08740        0.24971       -0.02767
C         -0.04070        1.04086        0.00109
C         -1.11429        0.11203       -0.02916
N         -0.66488       -1.14788       -0.07901
O          0.71353       -1.05723       -0.08178
C         -2.57140        0.37935       -0.02110
C         -0.03779        2.48365        0.07203
C         -0.67310        3.14448        1.12973
C         -0.63316        4.52482        1.13272
C          0.02150        5.19167        0.10306
C         -0.06385        6.62397        0.31654
C         -0.75467        6.81908        1.45271
C         -1.19075        5.52061        2.09604
N          0.64008        4.61261       -0.93153
C          0.59048        3.25573       -0.91974
H          2.89386        0.79833       -0.99430
H          2.78300        1.30713        0.70303
H          3.09426       -0.38783        0.30713
H         -2.90386        0.64065        0.98846
H         -2.81750        1.20891       -0.69169
H         -3.14168       -0.49531       -0.35110
H         -1.16836        2.60039        1.92704
H          0.36513        7.35744       -0.34441
H         -0.98035        7.78985        1.87146
H         -0.74614        5.40931        3.08901
H         -2.28134        5.45888        2.14905
H          1.08206        2.78506       -1.76828

--Link1--
%chk=JID_6375.chk
%mem=8GB
%nprocshared=4
# B3LYP/6-311++G(d,p) empiricaldispersion=gd3bj scf=xqc pop=npa geom=check

CID_148098094_JID_6375_Energie_neutraal

0 1

--Link1--
%chk=JID_6375.chk
%mem=8GB
%nprocshared=4
# B3LYP/6-311++G(d,p) empiricaldispersion=gd3bj scf=xqc pop=npa geom=check

CID_148098094_JID_6375_Energie_kation

1 2

--Link1--
%chk=JID_6375.chk
%mem=8GB
%nprocshared=4
# B3LYP/6-311++G(d,p) empiricaldispersion=gd3bj scf=xqc pop=npa geom=check

CID_148098094_JID_6375_Energie_anion

-1 2
