%chk=JID_7052.chk
%mem=8GB
%nprocshared=4
# opt freq B3LYP/6-31G(d) empiricaldispersion=gd3bj scf=xqc

CID_66102648_JID_7052_neutraal

0 1
C          0.96235       -0.00632       -0.09243
C         -0.33790       -0.56846       -0.67725
C         -0.15609       -2.04108       -1.07186
O          0.07180       -2.87022        0.05887
C         -1.50352       -0.41954        0.31932
S         -2.34736        1.19407        0.13693
C         -2.31202        1.89251        1.85169
C         -3.28987        1.20317        2.85240
N         -3.22787       -0.25713        2.99030
C         -0.89913        2.16972        2.35492
C         -0.22803        1.25583        3.18697
C          1.07220        1.50192        3.62990
C          1.72718        2.66701        3.24894
C          1.07832        3.59607        2.43645
C         -0.23208        3.36521        2.00031
O         -0.92666        4.24218        1.20566
C         -0.50510        5.60034        1.22471
H          1.21628       -0.47400        0.86407
H          0.88189        1.07278        0.06749
H          1.79848       -0.17137       -0.78043
H         -0.55838       -0.02429       -1.60510
H         -1.05649       -2.40821       -1.57629
H          0.67958       -2.16333       -1.76982
H          0.96702       -2.67959        0.38741
H         -2.27238       -1.16935        0.10246
H         -1.16093       -0.59875        1.33913
H         -2.77957        2.87742        1.71996
H         -3.15382        1.64587        3.84675
H         -4.31569        1.45008        2.54880
H         -3.94114       -0.55704        3.65462
H         -3.49514       -0.67366        2.09723
H         -0.70910        0.32947        3.49397
H          1.57379        0.77687        4.26548
H          2.74470        2.85337        3.58177
H          1.62443        4.48757        2.14637
H         -1.28045        6.19635        0.73336
H         -0.39925        5.97433        2.24895
H          0.42227        5.72921        0.65837

--Link1--
%chk=JID_7052.chk
%mem=8GB
%nprocshared=4
# B3LYP/6-311++G(d,p) empiricaldispersion=gd3bj scf=xqc pop=npa geom=check

CID_66102648_JID_7052_Energie_neutraal

0 1

--Link1--
%chk=JID_7052.chk
%mem=8GB
%nprocshared=4
# B3LYP/6-311++G(d,p) empiricaldispersion=gd3bj scf=xqc pop=npa geom=check

CID_66102648_JID_7052_Energie_kation

1 2

--Link1--
%chk=JID_7052.chk
%mem=8GB
%nprocshared=4
# B3LYP/6-311++G(d,p) empiricaldispersion=gd3bj scf=xqc pop=npa geom=check

CID_66102648_JID_7052_Energie_anion

-1 2
