%chk=JID_3969.chk
%mem=8GB
%nprocshared=4
# opt freq B3LYP/6-31G(d) empiricaldispersion=gd3bj scf=xqc

CID_131194908_JID_3969_neutraal

0 1
C          0.94441       -0.07947       -0.02436
C          0.64702        1.06798       -0.98417
C          1.06820        0.88757       -2.43139
C          0.99896        1.97695       -3.33854
C          1.36751        1.84634       -4.69544
C          1.75584        0.57949       -5.14567
C          1.84137       -0.50244       -4.27055
C          1.49975       -0.35058       -2.92734
N          1.14779        2.84110       -5.65843
C          0.55657        3.29703       -2.82602
O         -0.62441        3.45933       -2.52527
C          1.56893        4.42496       -2.70381
C          3.01251        3.99774       -2.50170
H          0.39242       -0.98434       -0.29884
H          0.64197        0.19528        0.99162
H          2.01342       -0.31589       -0.00443
H         -0.43382        1.25280       -0.96280
H          1.14702        1.95798       -0.58316
H          1.98068        0.41832       -6.19743
H          2.15010       -1.47613       -4.64383
H          1.56111       -1.22634       -2.28638
H          1.70559        2.75873       -6.50215
H          1.05418        3.79521       -5.33341
H          1.48390        5.06774       -3.58555
H          1.27159        5.02084       -1.83217
H          3.41412        3.49857       -3.38854
H          3.63898        4.87365       -2.30463
H          3.10985        3.31410       -1.65242

--Link1--
%chk=JID_3969.chk
%mem=8GB
%nprocshared=4
# B3LYP/6-311++G(d,p) empiricaldispersion=gd3bj scf=xqc pop=npa geom=check

CID_131194908_JID_3969_Energie_neutraal

0 1

--Link1--
%chk=JID_3969.chk
%mem=8GB
%nprocshared=4
# B3LYP/6-311++G(d,p) empiricaldispersion=gd3bj scf=xqc pop=npa geom=check

CID_131194908_JID_3969_Energie_kation

1 2

--Link1--
%chk=JID_3969.chk
%mem=8GB
%nprocshared=4
# B3LYP/6-311++G(d,p) empiricaldispersion=gd3bj scf=xqc pop=npa geom=check

CID_131194908_JID_3969_Energie_anion

-1 2
