%chk=JID_4298.chk
%mem=8GB
%nprocshared=4
# opt freq B3LYP/6-31G(d) empiricaldispersion=gd3bj scf=xqc

CID_142940900_JID_4298_neutraal

0 1
C          2.49200        0.00400       -0.01400
C          1.02704        0.09627        0.32182
C          0.30969       -1.01421        0.81494
C         -1.05460       -0.87091        1.11213
C         -1.69652        0.35546        0.93439
C         -0.99406        1.46037        0.45611
C          0.36249        1.32760        0.15234
O         -1.74085        2.59914        0.32922
C         -1.06672        3.76516       -0.12596
C          0.92969       -2.34212        0.99848
C          0.93448       -3.20597       -0.03231
C          1.43824       -4.56248       -0.05286
C          1.43650       -5.31845       -1.15778
S          1.56725       -2.63155        2.58321
H          3.07651       -0.21672        0.88446
H          2.66659       -0.77138       -0.76646
H          2.86878        0.94566       -0.42763
H         -1.62567       -1.71674        1.48962
H         -2.75280        0.44956        1.17373
H          0.93138        2.17325       -0.22127
H         -0.27012        4.05702        0.56639
H         -0.67888        3.62574       -1.14042
H         -1.79503        4.58125       -0.15784
H          0.49371       -2.86934       -0.97231
H          1.81764       -4.99870        0.86668
H          1.81366       -6.33631       -1.12887
H          1.06398       -4.95500       -2.11044
H          2.54968       -3.48359        2.26330

--Link1--
%chk=JID_4298.chk
%mem=8GB
%nprocshared=4
# B3LYP/6-311++G(d,p) empiricaldispersion=gd3bj scf=xqc pop=npa geom=check

CID_142940900_JID_4298_Energie_neutraal

0 1

--Link1--
%chk=JID_4298.chk
%mem=8GB
%nprocshared=4
# B3LYP/6-311++G(d,p) empiricaldispersion=gd3bj scf=xqc pop=npa geom=check

CID_142940900_JID_4298_Energie_kation

1 2

--Link1--
%chk=JID_4298.chk
%mem=8GB
%nprocshared=4
# B3LYP/6-311++G(d,p) empiricaldispersion=gd3bj scf=xqc pop=npa geom=check

CID_142940900_JID_4298_Energie_anion

-1 2
