%chk=JID_8172.chk
%mem=8GB
%nprocshared=4
# opt freq B3LYP/6-31G(d) empiricaldispersion=gd3bj scf=xqc

CID_81825515_JID_8172_neutraal

0 1
C          0.33400        1.00600       -0.17300
C          1.24359       -0.14075       -0.64797
C          1.11405       -0.69879        0.78013
N          0.07171        0.29202        1.08749
O          0.82650       -0.97540       -1.76285
C         -0.51791       -1.45055       -1.81859
C         -0.50035       -2.95816       -1.95715
S         -2.03561       -3.68125       -1.43393
O         -3.12217       -2.90281       -1.99705
O         -1.96161       -5.11449       -1.63905
C         -2.04550       -3.42266        0.33042
C         -1.19444       -4.18832        1.13294
C         -1.16612       -3.96559        2.51158
C         -1.99258       -2.99077        3.08524
C         -2.85944       -2.24640        2.27434
C         -2.89355       -2.46517        0.89463
C         -1.95382       -2.75908        4.50022
N         -1.91816       -2.57006        5.64446
H         -0.55687        1.19738       -0.77892
H          0.85727        1.95845       -0.03167
H          2.26367        0.20859       -0.85251
H          0.78375       -1.73853        0.85446
H          2.01735       -0.58324        1.38929
H         -0.86849       -0.09391        1.15749
H         -1.08198       -1.13075       -0.94197
H         -0.99941       -0.99427       -2.69012
H         -0.34429       -3.24110       -3.00357
H          0.30721       -3.41672       -1.37757
H         -0.55762       -4.95691        0.69818
H         -0.49926       -4.55909        3.13599
H         -3.51593       -1.49623        2.71413
H         -3.57792       -1.88729        0.27558

--Link1--
%chk=JID_8172.chk
%mem=8GB
%nprocshared=4
# B3LYP/6-311++G(d,p) empiricaldispersion=gd3bj scf=xqc pop=npa geom=check

CID_81825515_JID_8172_Energie_neutraal

0 1

--Link1--
%chk=JID_8172.chk
%mem=8GB
%nprocshared=4
# B3LYP/6-311++G(d,p) empiricaldispersion=gd3bj scf=xqc pop=npa geom=check

CID_81825515_JID_8172_Energie_kation

1 2

--Link1--
%chk=JID_8172.chk
%mem=8GB
%nprocshared=4
# B3LYP/6-311++G(d,p) empiricaldispersion=gd3bj scf=xqc pop=npa geom=check

CID_81825515_JID_8172_Energie_anion

-1 2
