%chk=JID_10740.chk
%mem=8GB
%nprocshared=4
# opt freq B3LYP/6-31G(d) empiricaldispersion=gd3bj scf=xqc

CID_80956570_JID_10740_neutraal

0 1
C          0.93955       -0.07961        0.00274
C         -0.10966        1.02042       -0.04381
N          0.42358        2.16510       -0.77342
C         -0.49011        3.19924       -0.99563
C         -1.15520        3.83036        0.03061
C         -2.02740        4.84251       -0.30735
N         -2.19253        5.22138       -1.58075
C         -1.48863        4.57911       -2.53237
N         -0.64567        3.56270       -2.27242
C         -1.66897        5.00384       -3.96969
C         -1.67275        6.46957       -4.34363
C         -0.50713        5.60794       -4.72694
N         -2.69257        5.51911        0.72512
C         -3.65167        6.55632        0.32980
C         -4.96351        6.00134       -0.24652
C         -5.69690        5.10095        0.71119
C         -5.73944        3.72023        0.71373
C         -6.53736        3.20526        1.77500
C         -7.08295        4.20941        2.54266
S         -6.63611        5.76150        1.98234
H          1.21074       -0.40749       -1.00644
H          0.55983       -0.94576        0.55337
H          1.85189        0.26938        0.49799
H         -1.01181        0.63671       -0.53558
H         -0.36929        1.29806        0.98385
H          0.74224        1.90756       -1.70812
H         -0.97999        3.56631        1.06375
H         -2.33203        4.36303       -4.54320
H         -2.35339        6.78773       -5.12419
H         -1.52729        7.20195       -3.55686
H          0.42925        5.75444       -4.19937
H         -0.39039        5.33678       -5.76933
H         -3.09748        4.86027        1.38532
H         -3.87317        7.14844        1.22608
H         -3.19427        7.25632       -0.38079
H         -5.61128        6.84267       -0.52433
H         -4.77386        5.45049       -1.17515
H         -5.22055        3.10857       -0.01553
H         -6.70753        2.15230        1.96295
H         -7.72832        4.10861        3.40449

--Link1--
%chk=JID_10740.chk
%mem=8GB
%nprocshared=4
# B3LYP/6-311++G(d,p) empiricaldispersion=gd3bj scf=xqc pop=npa geom=check

CID_80956570_JID_10740_Energie_neutraal

0 1

--Link1--
%chk=JID_10740.chk
%mem=8GB
%nprocshared=4
# B3LYP/6-311++G(d,p) empiricaldispersion=gd3bj scf=xqc pop=npa geom=check

CID_80956570_JID_10740_Energie_kation

1 2

--Link1--
%chk=JID_10740.chk
%mem=8GB
%nprocshared=4
# B3LYP/6-311++G(d,p) empiricaldispersion=gd3bj scf=xqc pop=npa geom=check

CID_80956570_JID_10740_Energie_anion

-1 2
