%chk=JID_8067.chk
%mem=8GB
%nprocshared=4
# opt freq B3LYP/6-31G(d) empiricaldispersion=gd3bj scf=xqc

CID_113851049_JID_8067_neutraal

0 1
C          1.01846        0.09758        0.01174
C          0.64952       -1.32112       -0.17729
C          1.33775       -2.45367        0.18897
N          0.54223       -3.51508       -0.18968
C         -0.56618       -2.97743       -0.80012
N         -0.53361       -1.66563       -0.77841
N         -1.60613       -3.68462       -1.29944
C         -1.44178       -4.30673       -2.63395
C         -2.76090       -5.01606       -2.96383
C         -1.10173       -3.28994       -3.74131
N          0.31318       -3.30225       -4.07566
C          1.23064       -2.32151       -3.83374
C          2.41844       -2.77039       -4.35949
C          2.11024       -4.02527       -4.91399
N          0.82614       -4.35380       -4.74991
C          0.87442       -4.89655        0.13928
C         -0.31130       -5.79490        0.49390
C          1.77475       -5.53301       -0.91972
H          0.57408        0.48459        0.93367
H          0.65949        0.70417       -0.82553
H          2.10458        0.21691        0.07467
H          2.28551       -2.59384        0.68950
H         -2.42170       -3.07100       -1.32990
H         -0.67845       -5.08662       -2.57238
H         -3.58772       -4.30162       -3.04645
H         -2.68400       -5.56216       -3.90991
H         -3.02201       -5.73589       -2.18008
H         -1.62062       -3.52955       -4.67793
H         -1.37918       -2.26506       -3.47076
H          0.96694       -1.41415       -3.30737
H          3.37079       -2.26093       -4.34775
H          2.76627       -4.71253       -5.43230
H          1.47152       -4.82582        1.06011
H         -0.89323       -6.08110       -0.38614
H          0.04349       -6.72286        0.95633
H         -0.98224       -5.30339        1.20647
H          2.66114       -4.91627       -1.10536
H          2.11830       -6.51963       -0.59082
H          1.26089       -5.66157       -1.87456

--Link1--
%chk=JID_8067.chk
%mem=8GB
%nprocshared=4
# B3LYP/6-311++G(d,p) empiricaldispersion=gd3bj scf=xqc pop=npa geom=check

CID_113851049_JID_8067_Energie_neutraal

0 1

--Link1--
%chk=JID_8067.chk
%mem=8GB
%nprocshared=4
# B3LYP/6-311++G(d,p) empiricaldispersion=gd3bj scf=xqc pop=npa geom=check

CID_113851049_JID_8067_Energie_kation

1 2

--Link1--
%chk=JID_8067.chk
%mem=8GB
%nprocshared=4
# B3LYP/6-311++G(d,p) empiricaldispersion=gd3bj scf=xqc pop=npa geom=check

CID_113851049_JID_8067_Energie_anion

-1 2
