%chk=JID_8866.chk
%mem=8GB
%nprocshared=4
# opt freq B3LYP/6-31G(d) empiricaldispersion=gd3bj scf=xqc

CID_62445650_JID_8866_neutraal

0 1
C          0.92744        0.04639        0.05082
C         -0.06873        0.03045       -1.09495
O          0.44880       -0.58929       -2.26967
C          1.51149        0.10717       -2.92964
C          1.07244        1.42937       -3.56396
O          1.12635        2.47309       -2.58552
C          0.59518        3.72048       -3.04550
C          1.47634        4.42972       -4.07953
O          2.70751        4.85011       -3.47204
C          3.77223        4.09369       -3.87706
C          4.25290        4.15654       -5.18357
C          5.35165        3.38118       -5.55040
C          5.97857        2.56648       -4.60485
C          5.52625        2.53369       -3.27687
C          4.41237        3.30652       -2.92163
C          6.21003        1.65675       -2.25673
N          5.74500        0.27517       -2.36942
C          6.37326       -0.56890       -1.36374
H          1.36018       -0.94757        0.20256
H          0.44148        0.36707        0.97707
H          1.75416        0.73448       -0.14918
H         -0.93429       -0.56797       -0.79018
H         -0.44940        1.03202       -1.31311
H          2.35460        0.24464       -2.24637
H          1.84477       -0.56293       -3.72929
H          1.76433        1.67275       -4.37529
H          0.05429        1.34355       -3.95877
H          0.50487        4.35643       -2.15827
H         -0.41346        3.56110       -3.44291
H          1.62719        3.80542       -4.96747
H          0.96582        5.34062       -4.41149
H          3.77991        4.80587       -5.91356
H          5.72424        3.41233       -6.57073
H          6.82827        1.95524       -4.90276
H          4.02805        3.29074       -1.90481
H          7.29451        1.71152       -2.41506
H          6.01687        2.05030       -1.25062
H          4.73531        0.26363       -2.23424
H          6.13510       -0.23218       -0.34943
H          6.00950       -1.59551       -1.47088
H          7.46079       -0.59038       -1.48811

--Link1--
%chk=JID_8866.chk
%mem=8GB
%nprocshared=4
# B3LYP/6-311++G(d,p) empiricaldispersion=gd3bj scf=xqc pop=npa geom=check

CID_62445650_JID_8866_Energie_neutraal

0 1

--Link1--
%chk=JID_8866.chk
%mem=8GB
%nprocshared=4
# B3LYP/6-311++G(d,p) empiricaldispersion=gd3bj scf=xqc pop=npa geom=check

CID_62445650_JID_8866_Energie_kation

1 2

--Link1--
%chk=JID_8866.chk
%mem=8GB
%nprocshared=4
# B3LYP/6-311++G(d,p) empiricaldispersion=gd3bj scf=xqc pop=npa geom=check

CID_62445650_JID_8866_Energie_anion

-1 2
