%chk=JID_7548.chk
%mem=8GB
%nprocshared=4
# opt freq B3LYP/6-31G(d) empiricaldispersion=gd3bj scf=xqc

CID_114269888_JID_7548_neutraal

0 1
C          1.06293       -0.07432        0.02273
C          0.27213        1.23222       -0.19543
C          0.33498        1.58470       -1.69425
C         -1.20092        0.96487        0.17904
C          0.84481        2.35368        0.72573
C          0.13900        3.71058        0.65439
C          1.24428        4.75782        0.66298
N          2.49673        4.07133        0.98491
C          2.32694        2.69396        0.53598
C          3.00911        4.34070        2.35080
C          2.30964        3.60877        3.54256
N          2.74375        2.24050        3.84554
C          4.56720        4.34982        2.46455
C          5.41987        3.14401        2.09211
C          5.40433        4.33081        1.18189
S          5.19632        5.46066        3.72308
C          5.49947        4.35165        5.11756
H          0.63155       -0.89995       -0.55497
H          1.05517       -0.36919        1.07811
H          2.10766        0.03039       -0.28897
H         -0.09955        0.78047       -2.30017
H         -0.22267        2.49616       -1.92797
H          1.36364        1.72164       -2.04073
H         -1.29768        0.70202        1.23851
H         -1.83182        1.84011       -0.00807
H         -1.61368        0.13472       -0.40578
H          0.72172        1.99695        1.75769
H         -0.51072        3.83267        1.52929
H         -0.48872        3.83480       -0.23167
H          1.34065        5.18139       -0.34458
H          0.99857        5.59571        1.32455
H          2.97619        1.97203        1.03149
H          2.60120        2.66454       -0.52350
H          2.75986        5.40056        2.51082
H          2.47020        4.20203        4.45030
H          1.22454        3.61361        3.39372
H          2.18379        1.87825        4.61595
H          2.55459        1.63646        3.05060
H          6.33995        2.94931        2.63096
H          4.93809        2.23587        1.76128
H          4.91279        4.22875        0.22221
H          6.29972        4.94092        1.12874
H          4.58489        3.84237        5.42467
H          6.26059        3.60917        4.86742
H          5.86318        4.93972        5.96470

--Link1--
%chk=JID_7548.chk
%mem=8GB
%nprocshared=4
# B3LYP/6-311++G(d,p) empiricaldispersion=gd3bj scf=xqc pop=npa geom=check

CID_114269888_JID_7548_Energie_neutraal

0 1

--Link1--
%chk=JID_7548.chk
%mem=8GB
%nprocshared=4
# B3LYP/6-311++G(d,p) empiricaldispersion=gd3bj scf=xqc pop=npa geom=check

CID_114269888_JID_7548_Energie_kation

1 2

--Link1--
%chk=JID_7548.chk
%mem=8GB
%nprocshared=4
# B3LYP/6-311++G(d,p) empiricaldispersion=gd3bj scf=xqc pop=npa geom=check

CID_114269888_JID_7548_Energie_anion

-1 2
