%chk=JID_2504.chk
%mem=8GB
%nprocshared=4
# opt freq B3LYP/6-31G(d) empiricaldispersion=gd3bj scf=xqc

CID_12363967_JID_2504_neutraal

0 1
C          0.92284       -0.05944       -0.02265
C          0.70860        1.43038        0.21838
N          1.50436        2.28197       -0.65821
C          0.96014        3.62258       -0.88069
C          0.49986        4.39121        0.35518
C          2.96225        2.19954       -0.56506
C          3.70075        3.05193        0.48039
C          3.54548        2.63455        1.94442
C          4.07403        1.23912        2.28878
C          5.56477        1.00760        2.01346
C          6.48050        1.91835        2.82059
O          5.87852       -0.34833        2.33671
H          0.20072       -0.63807        0.56327
H          1.92136       -0.38953        0.27370
H          0.77428       -0.31303       -1.07771
H         -0.35615        1.61621        0.02559
H          0.87564        1.65991        1.27400
H          1.67609        4.23629       -1.44182
H          0.09454        3.52106       -1.54807
H          1.30164        4.52386        1.08449
H          0.15399        5.38775        0.06022
H         -0.33729        3.89219        0.85313
H          3.29005        1.15808       -0.48599
H          3.34843        2.51309       -1.54526
H          4.76761        3.04565        0.22459
H          3.40343        4.10154        0.37844
H          4.06131        3.37425        2.56844
H          2.49432        2.69668        2.24028
H          3.87507        1.04495        3.35132
H          3.49433        0.47723        1.75666
H          5.77867        1.12817        0.94727
H          6.28639        1.81741        3.89412
H          7.52851        1.63997        2.66457
H          6.35998        2.96828        2.54000
H          5.71933       -0.47433        3.28718

--Link1--
%chk=JID_2504.chk
%mem=8GB
%nprocshared=4
# B3LYP/6-311++G(d,p) empiricaldispersion=gd3bj scf=xqc pop=npa geom=check

CID_12363967_JID_2504_Energie_neutraal

0 1

--Link1--
%chk=JID_2504.chk
%mem=8GB
%nprocshared=4
# B3LYP/6-311++G(d,p) empiricaldispersion=gd3bj scf=xqc pop=npa geom=check

CID_12363967_JID_2504_Energie_kation

1 2

--Link1--
%chk=JID_2504.chk
%mem=8GB
%nprocshared=4
# B3LYP/6-311++G(d,p) empiricaldispersion=gd3bj scf=xqc pop=npa geom=check

CID_12363967_JID_2504_Energie_anion

-1 2
