%chk=JID_5794.chk
%mem=8GB
%nprocshared=4
# opt freq B3LYP/6-31G(d) empiricaldispersion=gd3bj scf=xqc

CID_53305767_JID_5794_neutraal

0 1
C          3.40500       -0.22500        0.00000
C          2.49752       -1.28105        0.00015
C          1.14961       -0.92294        0.00008
C          0.75144        0.41063       -0.00012
C         -0.67222        0.44451       -0.00010
C         -1.11567       -0.87911        0.00009
N          0.00503       -1.68186        0.00018
C         -2.47232       -1.22236        0.00015
C         -3.40262       -0.17631        0.00006
C         -2.99110        1.16044       -0.00011
C         -1.62689        1.48247       -0.00020
C         -3.96997        2.20830       -0.00018
N         -4.77148        3.04797       -0.00022
N          1.63104        1.44443       -0.00027
C          2.93072        1.08010       -0.00021
H          4.47327       -0.41585        0.00004
H          2.82434       -2.31433        0.00031
H         -0.01416       -2.69143        0.00032
H         -2.79930       -2.25772        0.00029
H         -4.46486       -0.41887        0.00012
H         -1.29034        2.51681       -0.00033
H          3.63017        1.91306       -0.00034

--Link1--
%chk=JID_5794.chk
%mem=8GB
%nprocshared=4
# B3LYP/6-311++G(d,p) empiricaldispersion=gd3bj scf=xqc pop=npa geom=check

CID_53305767_JID_5794_Energie_neutraal

0 1

--Link1--
%chk=JID_5794.chk
%mem=8GB
%nprocshared=4
# B3LYP/6-311++G(d,p) empiricaldispersion=gd3bj scf=xqc pop=npa geom=check

CID_53305767_JID_5794_Energie_kation

1 2

--Link1--
%chk=JID_5794.chk
%mem=8GB
%nprocshared=4
# B3LYP/6-311++G(d,p) empiricaldispersion=gd3bj scf=xqc pop=npa geom=check

CID_53305767_JID_5794_Energie_anion

-1 2
