%chk=JID_470.chk
%mem=8GB
%nprocshared=4
# opt freq B3LYP/6-31G(d) empiricaldispersion=gd3bj scf=xqc

CID_57245528_JID_470_neutraal

0 1
C          0.94569       -0.06044       -0.05829
O          0.78110        0.48915       -1.35835
C          1.21878        1.83712       -1.45030
C          1.18908        2.28656       -2.90677
C          1.05509        3.80692       -2.86202
C          0.64988        4.16337       -1.42136
C          0.26692        2.82502       -0.78519
C         -0.45448        5.22367       -1.36991
C         -0.81058        5.62312        0.03449
C         -0.60751        6.84630        0.53986
H          0.64080       -1.11002       -0.08988
H          0.31371        0.45899        0.66736
H          1.99437       -0.01269        0.25048
H          2.23757        1.93862       -1.05385
H          2.08455        1.96635       -3.44939
H          0.33081        1.84643       -3.43016
H          0.32115        4.14367       -3.60249
H          2.00896        4.28616       -3.11068
H          1.54016        4.55039       -0.90536
H         -0.77639        2.55608       -0.99311
H          0.38932        2.83820        0.30272
H         -0.13323        6.10299       -1.94274
H         -1.36058        4.84850       -1.86185
H         -1.27850        4.86715        0.66189
H         -0.89562        7.08037        1.56019
H         -0.15388        7.63920       -0.04668

--Link1--
%chk=JID_470.chk
%mem=8GB
%nprocshared=4
# B3LYP/6-311++G(d,p) empiricaldispersion=gd3bj scf=xqc pop=npa geom=check

CID_57245528_JID_470_Energie_neutraal

0 1

--Link1--
%chk=JID_470.chk
%mem=8GB
%nprocshared=4
# B3LYP/6-311++G(d,p) empiricaldispersion=gd3bj scf=xqc pop=npa geom=check

CID_57245528_JID_470_Energie_kation

1 2

--Link1--
%chk=JID_470.chk
%mem=8GB
%nprocshared=4
# B3LYP/6-311++G(d,p) empiricaldispersion=gd3bj scf=xqc pop=npa geom=check

CID_57245528_JID_470_Energie_anion

-1 2
