%chk=JID_9475.chk
%mem=8GB
%nprocshared=4
# opt freq B3LYP/6-31G(d) empiricaldispersion=gd3bj scf=xqc

CID_69723045_JID_9475_neutraal

0 1
C          1.86400        1.49500        0.03800
C          0.84677        0.43268        0.35314
C          1.23104       -0.83627        0.80179
C          0.24169       -1.80624        0.94763
C         -1.11300       -1.49342        0.76998
C         -1.54523       -0.20752        0.41744
C         -0.52605        0.73336        0.19845
N         -2.89566        0.08210        0.23312
C         -3.90557       -0.56810        1.07240
C         -5.11261       -1.05040        0.26127
C         -4.76919       -1.79914       -1.02841
C         -4.76589       -0.92674       -2.29299
C         -3.44184       -0.24118       -2.64965
C         -3.08622        1.11687       -2.01197
C         -3.33678        1.26837       -0.51162
C         -3.69811        2.29458       -2.75729
O         -3.01726        3.12445       -3.35360
N         -5.05164        2.42947       -2.74076
N          2.57812       -1.22023        0.87505
H          2.40050        1.78542        0.94695
H          2.57826        1.13093       -0.70769
H          1.39567        2.39516       -0.37405
H          0.51177       -2.83009        1.19168
H         -1.82123       -2.31059        0.86692
H         -0.77786        1.74402       -0.10898
H         -3.51569       -1.41869        1.63947
H         -4.24929        0.14583        1.83224
H         -5.79012       -0.21636        0.04463
H         -5.68630       -1.72415        0.91148
H         -5.55798       -2.54998       -1.17325
H         -3.83536       -2.36401       -0.93122
H         -5.60086       -0.22326       -2.27888
H         -4.98102       -1.60982       -3.12716
H         -3.43386       -0.10096       -3.73978
H         -2.62481       -0.94636       -2.44739
H         -2.00534        1.23237       -2.17877
H         -4.40329        1.44811       -0.33379
H         -2.86227        2.17859       -0.12359
H         -5.68475        1.80578       -2.26518
H         -5.44261        3.21343       -3.24826
H          2.73723       -2.01717        1.48304
H          3.20878       -0.45397        1.08458

--Link1--
%chk=JID_9475.chk
%mem=8GB
%nprocshared=4
# B3LYP/6-311++G(d,p) empiricaldispersion=gd3bj scf=xqc pop=npa geom=check

CID_69723045_JID_9475_Energie_neutraal

0 1

--Link1--
%chk=JID_9475.chk
%mem=8GB
%nprocshared=4
# B3LYP/6-311++G(d,p) empiricaldispersion=gd3bj scf=xqc pop=npa geom=check

CID_69723045_JID_9475_Energie_kation

1 2

--Link1--
%chk=JID_9475.chk
%mem=8GB
%nprocshared=4
# B3LYP/6-311++G(d,p) empiricaldispersion=gd3bj scf=xqc pop=npa geom=check

CID_69723045_JID_9475_Energie_anion

-1 2
