%chk=JID_5482.chk
%mem=8GB
%nprocshared=4
# opt freq B3LYP/6-31G(d) empiricaldispersion=gd3bj scf=xqc

CID_149033085_JID_5482_neutraal

0 1
C          1.05244        0.03243       -0.07873
C          0.88668       -1.45010        0.15692
O          0.77333       -1.89215        1.30630
C          0.91579       -2.39712       -1.08697
C         -0.08566       -1.91955       -2.13371
N          2.30093       -2.47618       -1.53781
C          2.58514       -3.45057       -2.59725
C          2.47656       -2.92952       -4.04570
C          3.18714       -1.61994       -4.30812
C          4.56192       -1.48474       -4.07048
C          5.20403       -0.26627       -4.29758
C          4.48210        0.82634       -4.77295
C          3.11843        0.70028       -5.02742
C          2.47451       -0.51696       -4.79994
O          0.49739       -3.68291       -0.65636
H          1.08585        0.55014        0.88461
H          0.20407        0.42032       -0.64645
H          1.98703        0.23103       -0.60740
H          0.24335       -1.00378       -2.63439
H         -0.27855       -2.68863       -2.88852
H         -1.05553       -1.70762       -1.66701
H          2.62651       -1.55971       -1.84362
H          3.62070       -3.77622       -2.43770
H          1.98354       -4.36066       -2.49129
H          2.89536       -3.68309       -4.72523
H          1.42147       -2.83792       -4.32379
H          5.14480       -2.32677       -3.70336
H          6.26992       -0.17106       -4.10611
H          4.98424        1.77344       -4.95244
H          2.55681        1.54933       -5.40867
H          1.41043       -0.59686       -5.01167
H          1.00693       -3.83776        0.16143

--Link1--
%chk=JID_5482.chk
%mem=8GB
%nprocshared=4
# B3LYP/6-311++G(d,p) empiricaldispersion=gd3bj scf=xqc pop=npa geom=check

CID_149033085_JID_5482_Energie_neutraal

0 1

--Link1--
%chk=JID_5482.chk
%mem=8GB
%nprocshared=4
# B3LYP/6-311++G(d,p) empiricaldispersion=gd3bj scf=xqc pop=npa geom=check

CID_149033085_JID_5482_Energie_kation

1 2

--Link1--
%chk=JID_5482.chk
%mem=8GB
%nprocshared=4
# B3LYP/6-311++G(d,p) empiricaldispersion=gd3bj scf=xqc pop=npa geom=check

CID_149033085_JID_5482_Energie_anion

-1 2
