%chk=JID_4130.chk
%mem=8GB
%nprocshared=4
# opt freq B3LYP/6-31G(d) empiricaldispersion=gd3bj scf=xqc

CID_138460641_JID_4130_neutraal

0 1
C          2.49200        0.00400       -0.01400
C          1.00695       -0.19794       -0.06694
C          0.38091       -1.09562       -0.94256
C         -1.01521       -1.17745       -0.98287
C         -1.80589       -0.38705       -0.14734
C         -1.19071        0.46807        0.76311
C          0.20387        0.55578        0.80545
O         -3.15666       -0.53854       -0.30366
C         -3.96034        0.54779        0.14430
O          1.03538       -1.78971       -1.92283
C          1.95234       -2.78374       -1.46208
C          2.79086       -3.27182       -2.65860
C          3.28044       -2.11815       -3.54023
C          3.97992       -4.10241       -2.17804
H          2.94693       -0.68630        0.70246
H          2.94930       -0.12551       -0.99916
H          2.73281        1.02598        0.30059
H         -1.49233       -1.84009       -1.70052
H         -1.76543        1.08370        1.44655
H          0.66351        1.24783        1.50899
H         -3.99052        0.58842        1.23762
H         -3.61749        1.50002       -0.27599
H         -4.98133        0.37697       -0.21054
H          2.61949       -2.40682       -0.68414
H          1.39035       -3.62483       -1.03732
H          2.15043       -3.90637       -3.28435
H          3.87758       -1.40291       -2.96546
H          3.89836       -2.49292       -4.36311
H          2.44008       -1.57773       -3.98899
H          3.64907       -4.94326       -1.56077
H          4.53971       -4.50678       -3.02823
H          4.67088       -3.49420       -1.58304

--Link1--
%chk=JID_4130.chk
%mem=8GB
%nprocshared=4
# B3LYP/6-311++G(d,p) empiricaldispersion=gd3bj scf=xqc pop=npa geom=check

CID_138460641_JID_4130_Energie_neutraal

0 1

--Link1--
%chk=JID_4130.chk
%mem=8GB
%nprocshared=4
# B3LYP/6-311++G(d,p) empiricaldispersion=gd3bj scf=xqc pop=npa geom=check

CID_138460641_JID_4130_Energie_kation

1 2

--Link1--
%chk=JID_4130.chk
%mem=8GB
%nprocshared=4
# B3LYP/6-311++G(d,p) empiricaldispersion=gd3bj scf=xqc pop=npa geom=check

CID_138460641_JID_4130_Energie_anion

-1 2
