%chk=JID_5779.chk
%mem=8GB
%nprocshared=4
# opt freq B3LYP/6-31G(d) empiricaldispersion=gd3bj scf=xqc

CID_102543542_JID_5779_neutraal

0 1
C          0.91621       -0.05453       -0.00229
C          0.40113        0.12773       -1.42209
N          0.81114       -1.01147       -2.23367
C          0.37285       -0.92911       -3.63420
C          0.88544        0.25977       -4.46771
N          2.31986        0.49034       -4.41762
C          2.97639        1.70274       -4.48320
C          4.32950        1.41100       -4.33850
C          4.35930       -0.00103       -4.22873
N          3.15462       -0.55758       -4.30958
C          5.55707        2.27940       -4.30998
C          5.68136        3.27036       -5.46413
O          5.83346        2.87379       -3.03357
C          4.90442        3.83787       -2.57100
C          2.23999        2.98187       -4.65918
H          0.52247       -0.97200        0.44823
H          0.60360        0.78820        0.62275
H          2.01034       -0.10237        0.02032
H         -0.69159        0.20387       -1.40114
H          0.80175        1.06629       -1.81884
H          1.83581       -1.08163       -2.23914
H          0.68867       -1.85937       -4.12272
H         -0.72358       -0.93849       -3.66877
H          0.63698        0.10597       -5.52413
H          0.38295        1.17433       -4.13778
H          5.22245       -0.64318       -4.10309
H          6.40417        1.59304       -4.45091
H          4.92861        4.06015       -5.43212
H          6.65416        3.77306       -5.42337
H          5.59280        2.76285       -6.43055
H          4.77878        4.65515       -3.28493
H          3.94242        3.37593       -2.33778
H          5.29726        4.26428       -1.64324
H          1.58862        2.93493       -5.53809
H          1.62306        3.19115       -3.77906
H          2.90871        3.83192       -4.79524

--Link1--
%chk=JID_5779.chk
%mem=8GB
%nprocshared=4
# B3LYP/6-311++G(d,p) empiricaldispersion=gd3bj scf=xqc pop=npa geom=check

CID_102543542_JID_5779_Energie_neutraal

0 1

--Link1--
%chk=JID_5779.chk
%mem=8GB
%nprocshared=4
# B3LYP/6-311++G(d,p) empiricaldispersion=gd3bj scf=xqc pop=npa geom=check

CID_102543542_JID_5779_Energie_kation

1 2

--Link1--
%chk=JID_5779.chk
%mem=8GB
%nprocshared=4
# B3LYP/6-311++G(d,p) empiricaldispersion=gd3bj scf=xqc pop=npa geom=check

CID_102543542_JID_5779_Energie_anion

-1 2
