%chk=JID_6971.chk
%mem=8GB
%nprocshared=4
# opt freq B3LYP/6-31G(d) empiricaldispersion=gd3bj scf=xqc

CID_21134345_JID_6971_neutraal

0 1
C          1.05964        0.07381        0.03153
C          0.48141        1.09899        1.01099
C          0.98723        2.49850        0.65169
C         -1.05937        1.09048        1.03414
C         -1.63570       -0.23781        1.43789
C         -2.31182       -0.45187        2.57683
C         -2.84509       -1.76958        2.91912
C         -2.05223       -2.90746        2.96290
N         -2.50264       -4.14686        3.27137
C         -3.79521       -4.30686        3.55655
C         -4.67935       -3.20813        3.55153
C         -4.18761       -1.93066        3.23783
C         -6.03202       -3.42087        3.85376
C         -6.47115       -4.70218        4.14777
C         -5.53681       -5.71729        4.13002
N         -4.22933       -5.53520        3.84457
H          0.66257        0.22214       -0.97841
H          0.83263       -0.95067        0.34206
H          2.15061        0.15966       -0.01958
H          0.85184        0.85556        2.01546
H          0.65631        2.79585       -0.34934
H          0.61817        3.24182        1.36617
H          2.08176        2.53388        0.67063
H         -1.41313        1.87429        1.71637
H         -1.45034        1.34709        0.04142
H         -1.49763       -1.05295        0.72895
H         -2.49806        0.35117        3.28494
H         -0.98770       -2.86050        2.74583
H         -4.85616       -1.07364        3.22429
H         -6.73989       -2.59646        3.85588
H         -7.50986       -4.90446        4.38214
H         -5.81827       -6.74330        4.35088

--Link1--
%chk=JID_6971.chk
%mem=8GB
%nprocshared=4
# B3LYP/6-311++G(d,p) empiricaldispersion=gd3bj scf=xqc pop=npa geom=check

CID_21134345_JID_6971_Energie_neutraal

0 1

--Link1--
%chk=JID_6971.chk
%mem=8GB
%nprocshared=4
# B3LYP/6-311++G(d,p) empiricaldispersion=gd3bj scf=xqc pop=npa geom=check

CID_21134345_JID_6971_Energie_kation

1 2

--Link1--
%chk=JID_6971.chk
%mem=8GB
%nprocshared=4
# B3LYP/6-311++G(d,p) empiricaldispersion=gd3bj scf=xqc pop=npa geom=check

CID_21134345_JID_6971_Energie_anion

-1 2
