%chk=JID_4519.chk
%mem=8GB
%nprocshared=4
# opt freq B3LYP/6-31G(d) empiricaldispersion=gd3bj scf=xqc

CID_147588119_JID_4519_neutraal

0 1
C         -2.63500       -0.21700       -0.55100
C         -2.38630        1.26607       -0.89669
C         -1.15504        1.64802       -0.07866
C         -0.95331        0.36325        0.64480
C         -1.22142       -0.76759       -0.42544
C          0.13429       -1.21038        0.26782
C          0.51639        0.29083        0.40364
C          0.38144        1.57301       -0.40831
C          1.74537        1.94108        0.22530
C          2.52920        0.62202       -0.16431
C          1.41143        0.00912       -0.93596
C          0.64465        0.94042       -1.76785
C          1.45537       -1.37155       -0.48815
C          2.70300       -0.89339        0.39488
H         -3.19719       -0.70465       -1.35531
H         -3.22274       -0.33824        0.36912
H         -2.20979        1.40734       -1.96757
H         -3.26105        1.86457       -0.62099
H         -1.36784        2.49949        0.58037
H         -1.32305        0.26212        1.67137
H         -0.98390       -0.83765       -1.49028
H          0.04496       -1.79766        1.18927
H          2.18164        2.81350       -0.27323
H          1.72401        2.11195        1.30903
H          3.39544        0.90291       -0.77999
H         -0.16280        0.57860       -2.39906
H          1.26186        1.56332       -2.42903
H          1.58914       -2.16701       -1.21769
H          3.64765       -1.35694        0.08777
H          2.60030       -1.00467        1.47977

--Link1--
%chk=JID_4519.chk
%mem=8GB
%nprocshared=4
# B3LYP/6-311++G(d,p) empiricaldispersion=gd3bj scf=xqc pop=npa geom=check

CID_147588119_JID_4519_Energie_neutraal

0 1

--Link1--
%chk=JID_4519.chk
%mem=8GB
%nprocshared=4
# B3LYP/6-311++G(d,p) empiricaldispersion=gd3bj scf=xqc pop=npa geom=check

CID_147588119_JID_4519_Energie_kation

1 2

--Link1--
%chk=JID_4519.chk
%mem=8GB
%nprocshared=4
# B3LYP/6-311++G(d,p) empiricaldispersion=gd3bj scf=xqc pop=npa geom=check

CID_147588119_JID_4519_Energie_anion

-1 2
