%chk=JID_9465.chk
%mem=8GB
%nprocshared=4
# opt freq B3LYP/6-31G(d) empiricaldispersion=gd3bj scf=xqc

CID_10848103_JID_9465_neutraal

0 1
C         -0.74800        1.80400        0.88700
C          0.59263        2.01986        0.17603
C          1.53373        0.86448       -0.14220
C          2.69835        1.23401       -0.85348
C          3.61449        0.28771       -1.30176
C          3.37707       -1.05551       -1.06303
C          2.23914       -1.44620       -0.35488
C          1.31414       -0.50628        0.14804
C          0.10313       -0.95766        0.96843
C         -1.19244       -0.59853        0.23846
C         -1.96204       -1.54547       -0.45558
C         -3.13697       -1.16958       -1.10941
C         -3.55228        0.15826       -1.09295
C         -2.78643        1.11783       -0.43473
C         -1.60385        0.75250        0.22378
C          0.10314       -2.41520        1.51580
C          1.16050       -2.68227        2.59666
C          0.85536       -1.98748        3.85551
N          0.61061       -1.43758        4.84731
H         -0.60033        1.55908        1.94497
H         -1.28528        2.76170        0.89938
H          1.15926        2.74970        0.77012
H          0.36693        2.50628       -0.78440
H          2.88401        2.28311       -1.08057
H          4.49661        0.60018       -1.85341
H          4.07375       -1.80441       -1.43038
H          2.09678       -2.51321       -0.21303
H          0.13149       -0.35717        1.88462
H         -1.66011       -2.58764       -0.50531
H         -3.72611       -1.91499       -1.63724
H         -4.46601        0.44917       -1.60411
H         -3.11272        2.15510       -0.44816
H         -0.88254       -2.63567        1.95043
H          0.23854       -3.13601        0.70070
H          1.18876       -3.76091        2.79284
H          2.16136       -2.40283        2.25520

--Link1--
%chk=JID_9465.chk
%mem=8GB
%nprocshared=4
# B3LYP/6-311++G(d,p) empiricaldispersion=gd3bj scf=xqc pop=npa geom=check

CID_10848103_JID_9465_Energie_neutraal

0 1

--Link1--
%chk=JID_9465.chk
%mem=8GB
%nprocshared=4
# B3LYP/6-311++G(d,p) empiricaldispersion=gd3bj scf=xqc pop=npa geom=check

CID_10848103_JID_9465_Energie_kation

1 2

--Link1--
%chk=JID_9465.chk
%mem=8GB
%nprocshared=4
# B3LYP/6-311++G(d,p) empiricaldispersion=gd3bj scf=xqc pop=npa geom=check

CID_10848103_JID_9465_Energie_anion

-1 2
