%chk=JID_10244.chk
%mem=8GB
%nprocshared=4
# opt freq B3LYP/6-31G(d) empiricaldispersion=gd3bj scf=xqc

CID_60438159_JID_10244_neutraal

0 1
C          1.03814       -0.08086       -0.04481
C          0.10461        1.08480        0.23897
N          0.27978        2.21547       -0.65962
C          0.12092        3.56406       -0.17624
C          0.15568        4.44950       -1.40351
C         -0.00096        3.52048       -2.60078
C          0.06197        2.13164       -2.02572
O         -0.09426        1.11365       -2.68157
C          1.32805        5.40995       -1.53554
O          1.12316        6.62863       -1.56289
N          2.61524        4.98031       -1.73214
C          3.25159        4.06519       -0.86040
C          3.57974        4.45313        0.45763
C          4.24259        3.53916        1.29239
C          4.61719        2.27656        0.82640
C          4.36193        1.94429       -0.50702
C          3.69208        2.83099       -1.36684
C          3.49450        2.39854       -2.79383
C          5.35632        1.32327        1.71818
C          3.22897        5.80731        1.01655
H          0.85538       -0.52308       -1.02780
H          0.89559       -0.86649        0.70401
H          2.08320        0.23586       -0.00830
H         -0.93820        0.75684        0.16754
H          0.28401        1.43453        1.26194
H          0.87435        3.78697        0.57979
H         -0.86523        3.62572        0.30035
H         -0.72682        5.10522       -1.36456
H          0.77185        3.64847       -3.36206
H         -0.98461        3.65290       -3.06397
H          3.15854        5.83905       -1.79510
H          4.48078        3.81851        2.31764
H          4.68971        0.97817       -0.88938
H          2.76686        1.58362       -2.84309
H          3.15169        3.21091       -3.43960
H          4.44385        2.04457       -3.21104
H          6.43493        1.48178        1.62371
H          5.06820        1.46449        2.76525
H          5.12521        0.28552        1.45587
H          3.54249        6.60305        0.33360
H          2.15243        5.87913        1.19666
H          3.73927        5.99060        1.96850

--Link1--
%chk=JID_10244.chk
%mem=8GB
%nprocshared=4
# B3LYP/6-311++G(d,p) empiricaldispersion=gd3bj scf=xqc pop=npa geom=check

CID_60438159_JID_10244_Energie_neutraal

0 1

--Link1--
%chk=JID_10244.chk
%mem=8GB
%nprocshared=4
# B3LYP/6-311++G(d,p) empiricaldispersion=gd3bj scf=xqc pop=npa geom=check

CID_60438159_JID_10244_Energie_kation

1 2

--Link1--
%chk=JID_10244.chk
%mem=8GB
%nprocshared=4
# B3LYP/6-311++G(d,p) empiricaldispersion=gd3bj scf=xqc pop=npa geom=check

CID_60438159_JID_10244_Energie_anion

-1 2
