%chk=JID_1827.chk
%mem=8GB
%nprocshared=4
# opt=(cartesian,calcfc) freq B3LYP/6-31G(d) empiricaldispersion=gd3bj scf=xqc

CID_15373831_JID_1827_neutraal

0 1
6	2.744554	 1.775302	 0.019090
6	1.640168	 0.761426	 0.009349
6	1.773229	 -0.599193	 -0.000368
16	0.177245	 -1.352587	 -0.008543
6	-0.513621	 0.260846	 0.010665
7	0.333716	 1.240234	 0.013119
7	-1.892842	 0.471823	 0.032459
6	-2.401371	 1.850755	 -0.048085
6	-2.741494	 -0.559756	 0.017944
7	-3.488222	 -1.457281	 0.014348
6	2.999971	 -1.456974	 -0.020807
1	2.690367	 2.410705	 -0.872340
1	2.650720	 2.433198	 0.890553
1	3.730769	 1.307763	 0.044885
1	-3.462957	 1.835790	 0.200417
1	-1.852363	 2.468021	 0.663816
1	-2.255343	 2.252052	 -1.055782
1	3.153835	 -1.929834	 -1.002930
1	3.886512	 -0.855773	 0.202401
1	2.945362	 -2.258393	 0.719464

--Link1--
%chk=JID_1827.chk
%mem=8GB
%nprocshared=4
# B3LYP/6-311++G(d,p) empiricaldispersion=gd3bj scf=xqc pop=npa geom=check

CID_15373831_JID_1827_Energie_neutraal

0 1

--Link1--
%chk=JID_1827.chk
%mem=8GB
%nprocshared=4
# B3LYP/6-311++G(d,p) empiricaldispersion=gd3bj scf=xqc pop=npa geom=check

CID_15373831_JID_1827_Energie_kation

1 2

--Link1--
%chk=JID_1827.chk
%mem=8GB
%nprocshared=4
# B3LYP/6-311++G(d,p) empiricaldispersion=gd3bj scf=xqc pop=npa geom=check

CID_15373831_JID_1827_Energie_anion

-1 2
