%chk=JID_9503.chk
%mem=8GB
%nprocshared=4
# opt freq B3LYP/6-31G(d) empiricaldispersion=gd3bj scf=xqc

CID_22543610_JID_9503_neutraal

0 1
C          2.43100       -0.69900       -0.03100
C          2.32389        0.61601        0.41213
C          1.07075        1.22552        0.49203
C         -0.09176        0.52596        0.12943
C         -1.36026        1.12366        0.20374
C         -2.51161        0.41539       -0.15437
C         -2.40002       -0.89621       -0.61571
C         -1.14392       -1.50452       -0.69321
C          0.01735       -0.80886       -0.32216
C          1.28528       -1.40760       -0.39633
O         -3.69316        1.11567       -0.03383
C         -4.85831        0.37819        0.04933
N         -5.53740        0.22850       -1.10592
C         -6.69687       -0.42863       -0.99962
N         -7.23744       -0.91202        0.12867
C         -6.53207       -0.70760        1.25008
C         -5.27483       -0.10526        1.28386
N         -4.63410        0.18705        2.51063
N         -7.11308       -1.16610        2.44667
H          3.40652       -1.17405       -0.09497
H          3.21576        1.16954        0.69431
H          1.00822        2.25485        0.83839
H         -1.45962        2.15253        0.54336
H         -3.27090       -1.46154       -0.93554
H         -1.07887       -2.52829       -1.05576
H          1.38991       -2.43333       -0.74297
H         -7.26031       -0.57874       -1.91450
H         -4.84709       -0.53819        3.19563
H         -3.63148        0.31876        2.39388
H         -8.04482       -1.49915        2.21142
H         -7.14373       -0.39861        3.11262

--Link1--
%chk=JID_9503.chk
%mem=8GB
%nprocshared=4
# B3LYP/6-311++G(d,p) empiricaldispersion=gd3bj scf=xqc pop=npa geom=check

CID_22543610_JID_9503_Energie_neutraal

0 1

--Link1--
%chk=JID_9503.chk
%mem=8GB
%nprocshared=4
# B3LYP/6-311++G(d,p) empiricaldispersion=gd3bj scf=xqc pop=npa geom=check

CID_22543610_JID_9503_Energie_kation

1 2

--Link1--
%chk=JID_9503.chk
%mem=8GB
%nprocshared=4
# B3LYP/6-311++G(d,p) empiricaldispersion=gd3bj scf=xqc pop=npa geom=check

CID_22543610_JID_9503_Energie_anion

-1 2
