%chk=JID_6476.chk
%mem=8GB
%nprocshared=4
# opt=(cartesian,calcfc,maxcycle=500) freq B3LYP/6-31G(d) empiricaldispersion=gd3bj scf=xqc

CID_143809198_JID_6476_neutraal

0 1
6	1.879320	 1.297836	 -1.497263
6	2.572747	 2.396539	 -0.675295
6	4.850631	 -0.357843	 0.800579
6	4.806244	 -1.408121	 -0.265652
6	1.014768	 -1.764219	 0.713771
6	0.992540	 -0.637282	 1.766822
6	-1.450498	 2.919981	 -0.011534
6	-1.878109	 1.543724	 0.407377
7	-2.295326	 1.316304	 1.618131
8	-2.644613	 -0.063627	 1.698021
6	-2.417571	 -0.612890	 0.483803
6	-1.928508	 0.343139	 -0.401129
6	-1.628715	 -0.036782	 -1.679496
7	-1.781477	 -1.304052	 -2.123686
6	-2.259719	 -2.201464	 -1.222538
6	-2.600768	 -1.943904	 0.080079
1	1.008162	 0.913001	 -0.954737
1	2.541678	 0.474422	 -1.684817
1	1.530711	 1.682074	 -2.464204
1	1.909500	 3.264065	 -0.505509
1	2.895811	 2.034951	 0.281559
1	3.465079	 2.779136	 -1.216744
1	5.028937	 0.651708	 0.366677
1	5.692456	 -0.523952	 1.520652
1	3.946004	 -0.315617	 1.381254
1	4.018481	 -1.258992	 -0.953222
1	5.766155	 -1.462602	 -0.843926
1	4.660961	 -2.437763	 0.183546
1	0.528156	 -2.631888	 1.089660
1	2.038645	 -2.030479	 0.471947
1	0.536809	 -1.461472	 -0.192173
1	-0.025652	 -0.373571	 2.051882
1	1.530252	 -0.918164	 2.679319
1	1.467874	 0.281763	 1.376946
1	-0.430220	 2.886000	 -0.402461
1	-1.459363	 3.579888	 0.845982
1	-2.093380	 3.312121	 -0.772018
1	-1.229313	 0.671269	 -2.436709
1	-2.369135	 -3.214813	 -1.621942
1	-2.978258	 -2.710114	 0.756604

--Link1--
%chk=JID_6476.chk
%mem=8GB
%nprocshared=4
# B3LYP/6-311++G(d,p) empiricaldispersion=gd3bj scf=xqc pop=npa geom=check

CID_143809198_JID_6476_Energie_neutraal

0 1

--Link1--
%chk=JID_6476.chk
%mem=8GB
%nprocshared=4
# B3LYP/6-311++G(d,p) empiricaldispersion=gd3bj scf=xqc pop=npa geom=check

CID_143809198_JID_6476_Energie_kation

1 2

--Link1--
%chk=JID_6476.chk
%mem=8GB
%nprocshared=4
# B3LYP/6-311++G(d,p) empiricaldispersion=gd3bj scf=xqc pop=npa geom=check

CID_143809198_JID_6476_Energie_anion

-1 2
