%chk=JID_7231.chk
%mem=8GB
%nprocshared=4
# opt freq B3LYP/6-31G(d) empiricaldispersion=gd3bj scf=xqc

CID_61320590_JID_7231_neutraal

0 1
C          1.06146        0.04045       -0.06772
O          0.85298       -0.68910        1.14079
C          0.29096       -1.91774        0.96412
O         -0.06280       -2.37880       -0.11474
C          0.07893       -2.62608        2.29940
O          0.85627       -2.14715        3.39667
C          2.18817       -2.41061        3.29393
O          2.70128       -3.06923        2.39711
C          2.96162       -1.81557        4.45998
O          2.65567       -0.46298        4.76089
C          3.29977        0.50706        4.04191
C          3.97691        0.32382        2.83726
C          4.61432        1.40580        2.22677
C          4.55976        2.67391        2.80753
C          3.82639        2.88836        3.97482
C          3.23843        1.78755        4.60509
N          3.87994        4.12905        4.62265
H          1.46559        1.02205        0.19495
H          0.11647        0.18731       -0.60006
H          1.78872       -0.47584       -0.70185
H         -0.97302       -2.48984        2.57056
H          0.25411       -3.70014        2.16583
H          2.70408       -2.41218        5.34294
H          4.03820       -1.95815        4.30475
H          4.04176       -0.64127        2.34641
H          5.16805        1.25772        1.30308
H          5.09492        3.49481        2.33786
H          2.72851        1.91799        5.55615
H          3.10722        4.28880        5.26169
H          4.02917        4.91303        3.99549

--Link1--
%chk=JID_7231.chk
%mem=8GB
%nprocshared=4
# B3LYP/6-311++G(d,p) empiricaldispersion=gd3bj scf=xqc pop=npa geom=check

CID_61320590_JID_7231_Energie_neutraal

0 1

--Link1--
%chk=JID_7231.chk
%mem=8GB
%nprocshared=4
# B3LYP/6-311++G(d,p) empiricaldispersion=gd3bj scf=xqc pop=npa geom=check

CID_61320590_JID_7231_Energie_kation

1 2

--Link1--
%chk=JID_7231.chk
%mem=8GB
%nprocshared=4
# B3LYP/6-311++G(d,p) empiricaldispersion=gd3bj scf=xqc pop=npa geom=check

CID_61320590_JID_7231_Energie_anion

-1 2
