%chk=JID_7258.chk
%mem=8GB
%nprocshared=4
# opt freq B3LYP/6-31G(d) empiricaldispersion=gd3bj scf=xqc

CID_103872915_JID_7258_neutraal

0 1
C          2.49600       -0.00700       -0.12600
C          1.02981        0.06082        0.29764
C          0.34606        1.28792       -0.31996
C         -1.15016        1.32962       -0.00666
C         -1.88434        0.03679       -0.40678
C         -1.18654       -1.16582        0.25380
C          0.30340       -1.23799       -0.07450
C         -2.00200       -0.07064       -1.94584
N         -2.81246       -1.21974       -2.34837
C         -3.02426       -1.30999       -3.79912
C         -1.78114       -1.51480       -4.67628
C         -1.02536       -2.73268       -4.30681
N         -1.35876       -3.99858       -4.41957
C         -0.26975       -4.62955       -3.87452
N          0.70226       -3.81340       -3.44811
O          0.20104       -2.54368       -3.73776
C         -0.18157       -6.09711       -3.76669
H          2.59277       -0.11451       -1.21177
H          3.02884        0.90172        0.17319
H          2.99724       -0.85940        0.34455
H          0.99923        0.16770        1.39035
H          0.81606        2.20208        0.06308
H          0.49673        1.29647       -1.40613
H         -1.60522        2.19417       -0.50431
H         -1.27923        1.49049        1.07167
H         -2.90371        0.09718       -0.00115
H         -1.67078       -2.10801       -0.02264
H         -1.30003       -1.08093        1.34285
H          0.43874       -1.45476       -1.14013
H          0.74944       -2.07828        0.47150
H         -2.47140        0.84609       -2.32351
H         -1.00649       -0.13499       -2.39421
H         -2.38627       -2.08490       -2.01430
H         -3.71619       -2.14443       -3.96988
H         -3.55480       -0.41188       -4.13894
H         -2.09966       -1.60651       -5.72159
H         -1.13160       -0.63333       -4.63058
H         -1.10786       -6.50464       -3.35006
H         -0.02389       -6.54054       -4.75438
H          0.64441       -6.40374       -3.11712

--Link1--
%chk=JID_7258.chk
%mem=8GB
%nprocshared=4
# B3LYP/6-311++G(d,p) empiricaldispersion=gd3bj scf=xqc pop=npa geom=check

CID_103872915_JID_7258_Energie_neutraal

0 1

--Link1--
%chk=JID_7258.chk
%mem=8GB
%nprocshared=4
# B3LYP/6-311++G(d,p) empiricaldispersion=gd3bj scf=xqc pop=npa geom=check

CID_103872915_JID_7258_Energie_kation

1 2

--Link1--
%chk=JID_7258.chk
%mem=8GB
%nprocshared=4
# B3LYP/6-311++G(d,p) empiricaldispersion=gd3bj scf=xqc pop=npa geom=check

CID_103872915_JID_7258_Energie_anion

-1 2
