%chk=JID_10189.chk
%mem=8GB
%nprocshared=4
# opt freq B3LYP/6-31G(d) empiricaldispersion=gd3bj scf=xqc

CID_60571900_JID_10189_neutraal

0 1
C          1.02506        0.06182       -0.07450
C         -0.27846       -0.68857       -0.29862
C         -0.52776       -1.80363        0.72037
C         -0.69878       -1.35112        2.17564
C         -1.88799       -0.40691        2.37977
C         -2.25389       -0.18114        3.85163
C         -1.17254        0.47286        4.71235
C         -1.43895        1.93994        4.98234
O         -2.14990        2.28621        5.92894
N         -0.92471        2.90189        4.17280
C         -0.08579        2.78840        2.98165
C         -0.86036        3.32683        1.77622
C          1.25084        3.57189        3.12829
N          2.04273        3.23110        4.31812
C          2.63844        1.89247        4.29737
C          3.89721        1.78005        3.43748
C          4.94637        2.80354        3.86094
C          4.37425        4.22545        3.90399
C          3.03828        4.25222        4.67517
C          4.28872        4.83773        2.50457
H          1.01724        0.60749        0.87228
H          1.18254        0.79008       -0.87648
H          1.87721       -0.62510       -0.06872
H         -1.11393        0.01955       -0.30538
H         -0.24803       -1.13922       -1.29823
H         -1.42555       -2.35604        0.41586
H          0.30248       -2.51961        0.67488
H         -0.84268       -2.24722        2.79211
H          0.22762       -0.88219        2.52196
H         -1.69240        0.55230        1.89715
H         -2.76724       -0.83168        1.87903
H         -3.17767        0.40929        3.89231
H         -2.49681       -1.15877        4.28777
H         -1.17571       -0.01174        5.69844
H         -0.16413        0.31922        4.33076
H         -1.13201        3.83563        4.50592
H          0.13627        1.73787        2.79433
H         -1.07769        4.39494        1.89019
H         -0.28874        3.19081        0.85255
H         -1.82100        2.81458        1.66211
H          1.83012        3.43186        2.21118
H          0.99211        4.63821        3.17878
H          2.89355        1.61979        5.33017
H          1.91584        1.13786        3.97611
H          3.64628        1.90780        2.37859
H          4.31559        0.77177        3.53904
H          5.81314        2.75171        3.19199
H          5.30912        2.53917        4.86286
H          5.08266        4.84926        4.46614
H          2.59599        5.25562        4.62856
H          3.27194        4.10542        5.73901
H          3.79235        5.81299        2.53338
H          5.29610        4.99233        2.10145
H          3.75907        4.20244        1.79232

--Link1--
%chk=JID_10189.chk
%mem=8GB
%nprocshared=4
# B3LYP/6-311++G(d,p) empiricaldispersion=gd3bj scf=xqc pop=npa geom=check

CID_60571900_JID_10189_Energie_neutraal

0 1

--Link1--
%chk=JID_10189.chk
%mem=8GB
%nprocshared=4
# B3LYP/6-311++G(d,p) empiricaldispersion=gd3bj scf=xqc pop=npa geom=check

CID_60571900_JID_10189_Energie_kation

1 2

--Link1--
%chk=JID_10189.chk
%mem=8GB
%nprocshared=4
# B3LYP/6-311++G(d,p) empiricaldispersion=gd3bj scf=xqc pop=npa geom=check

CID_60571900_JID_10189_Energie_anion

-1 2
