%chk=JID_9632.chk
%mem=8GB
%nprocshared=4
# opt freq B3LYP/6-31G(d) empiricaldispersion=gd3bj scf=xqc

CID_117579019_JID_9632_neutraal

0 1
C         -2.37200       -0.01600        0.01400
C         -0.87977        0.09491        0.05143
N         -0.17038       -1.01331       -0.21110
C          1.16266       -0.93382       -0.09393
C          1.76952        0.26522        0.24370
C          0.98032        1.38245        0.46582
N         -0.35694        1.28145        0.39829
N          1.56119        2.62218        0.80782
C          2.71623        3.01037        0.00003
C          0.57821        3.68598        1.01646
N          1.94030       -2.06208       -0.36124
C          2.92627       -2.44462        0.64241
C          3.41450       -3.80570        0.15916
C          2.23618       -4.39831       -0.61707
C          1.22721       -3.26438       -0.80339
C          2.62924       -4.98245       -1.95206
O          2.34374       -6.12402       -2.29291
O          3.31829       -4.09513       -2.71816
C          3.70664       -4.59694       -3.99732
H         -2.68479       -0.71305       -0.76942
H         -2.73849       -0.37997        0.97818
H         -2.82770        0.95738       -0.19189
H          2.84469        0.32155        0.32130
H          2.48134        2.99272       -1.07045
H          3.03685        4.02725        0.25455
H          3.57976        2.36556        0.19215
H          0.05106        3.93481        0.08770
H         -0.15040        3.41502        1.78937
H          1.07823        4.59510        1.36967
H          2.46006       -2.54188        1.63120
H          3.76216       -1.74114        0.71072
H          4.30543       -3.68484       -0.46749
H          3.70537       -4.44081        1.00280
H          1.77747       -5.20683       -0.03402
H          0.87895       -3.15655       -1.83696
H          0.35848       -3.46916       -0.16378
H          4.37605       -5.45545       -3.88446
H          2.82536       -4.86569       -4.58787
H          4.24673       -3.80403       -4.52215

--Link1--
%chk=JID_9632.chk
%mem=8GB
%nprocshared=4
# B3LYP/6-311++G(d,p) empiricaldispersion=gd3bj scf=xqc pop=npa geom=check

CID_117579019_JID_9632_Energie_neutraal

0 1

--Link1--
%chk=JID_9632.chk
%mem=8GB
%nprocshared=4
# B3LYP/6-311++G(d,p) empiricaldispersion=gd3bj scf=xqc pop=npa geom=check

CID_117579019_JID_9632_Energie_kation

1 2

--Link1--
%chk=JID_9632.chk
%mem=8GB
%nprocshared=4
# B3LYP/6-311++G(d,p) empiricaldispersion=gd3bj scf=xqc pop=npa geom=check

CID_117579019_JID_9632_Energie_anion

-1 2
