%chk=JID_5601.chk
%mem=8GB
%nprocshared=4
# opt freq B3LYP/6-31G(d) empiricaldispersion=gd3bj scf=xqc

CID_60092569_JID_5601_neutraal

0 1
C          0.95208       -0.00285        0.08772
C          1.43517        0.55965       -1.24302
C          1.67261       -0.46106       -2.39211
C          0.69595       -1.64708       -2.33265
C          1.34795        0.30143       -3.71090
N          3.08037       -0.86980       -2.58941
C          3.87490       -1.64778       -1.62735
C          4.25106       -1.01865       -0.26251
C          3.82336       -2.05848        0.72457
C          3.81711       -1.94439        2.10646
C          3.34052       -3.01755        2.86141
C          2.88860       -4.18579        2.23099
C          2.90905       -4.29547        0.83932
C          3.37467       -3.22086        0.09711
C          3.48396       -3.12948       -1.38995
H          1.51605       -0.87171        0.41323
H         -0.10067       -0.29751        0.02099
H          1.02507        0.76330        0.86643
H          0.67716        1.29297       -1.55233
H          2.33975        1.15985       -1.08864
H         -0.34325       -1.29907       -2.37490
H          0.84017       -2.32651       -3.18096
H          0.79930       -2.23002       -1.41391
H          1.99327        1.18002       -3.83426
H          1.47773       -0.33684       -4.59392
H          0.30850        0.65170       -3.72205
H          3.14552       -1.34893       -3.48945
H          4.83931       -1.70590       -2.15636
H          5.33469       -0.86611       -0.19663
H          3.76649       -0.06289       -0.06945
H          4.15780       -1.03610        2.59345
H          3.31469       -2.94559        3.94564
H          2.51793       -5.01220        2.83255
H          2.55998       -5.20094        0.35351
H          2.55889       -3.42585       -1.88457
H          4.28100       -3.79354       -1.74491

--Link1--
%chk=JID_5601.chk
%mem=8GB
%nprocshared=4
# B3LYP/6-311++G(d,p) empiricaldispersion=gd3bj scf=xqc pop=npa geom=check

CID_60092569_JID_5601_Energie_neutraal

0 1

--Link1--
%chk=JID_5601.chk
%mem=8GB
%nprocshared=4
# B3LYP/6-311++G(d,p) empiricaldispersion=gd3bj scf=xqc pop=npa geom=check

CID_60092569_JID_5601_Energie_kation

1 2

--Link1--
%chk=JID_5601.chk
%mem=8GB
%nprocshared=4
# B3LYP/6-311++G(d,p) empiricaldispersion=gd3bj scf=xqc pop=npa geom=check

CID_60092569_JID_5601_Energie_anion

-1 2
