%chk=JID_2130.chk
%mem=8GB
%nprocshared=4
# opt freq B3LYP/6-31G(d) empiricaldispersion=gd3bj scf=xqc

CID_116353589_JID_2130_neutraal

0 1
C          0.97883        0.09711        0.01098
C          0.42051       -1.28817       -0.19105
O         -0.28768       -1.56408       -1.15821
C          0.78850       -2.32578        0.84616
C          1.64125       -3.45822        0.27771
C          2.75685       -2.96983       -0.66012
N          3.89010       -3.89781       -0.62467
C          4.27693       -4.33133       -1.96774
C          5.08830       -3.46284        0.11450
C          5.68801       -2.12311       -0.37325
C          5.92623       -1.78248        1.11619
C          4.79235       -2.77467        1.46660
H          0.47526        0.56973        0.85781
H          0.80656        0.69571       -0.88785
H          2.05448        0.05145        0.19467
H          1.33191       -1.83015        1.65890
H         -0.13527       -2.71958        1.28414
H          2.05371       -4.02036        1.12506
H          1.00170       -4.16042       -0.27254
H          2.33029       -2.90722       -1.67099
H          3.04996       -1.94663       -0.41903
H          4.61194       -3.49567       -2.59248
H          5.08295       -5.07243       -1.92269
H          3.43439       -4.82072       -2.46946
H          5.84472       -4.25299        0.21981
H          6.59680       -2.21223       -0.97616
H          5.02107       -1.41438       -0.87418
H          5.74675       -0.74115        1.39664
H          6.91060       -2.08898        1.48700
H          3.83314       -2.26755        1.60068
H          4.97347       -3.39040        2.35260

--Link1--
%chk=JID_2130.chk
%mem=8GB
%nprocshared=4
# B3LYP/6-311++G(d,p) empiricaldispersion=gd3bj scf=xqc pop=npa geom=check

CID_116353589_JID_2130_Energie_neutraal

0 1

--Link1--
%chk=JID_2130.chk
%mem=8GB
%nprocshared=4
# B3LYP/6-311++G(d,p) empiricaldispersion=gd3bj scf=xqc pop=npa geom=check

CID_116353589_JID_2130_Energie_kation

1 2

--Link1--
%chk=JID_2130.chk
%mem=8GB
%nprocshared=4
# B3LYP/6-311++G(d,p) empiricaldispersion=gd3bj scf=xqc pop=npa geom=check

CID_116353589_JID_2130_Energie_anion

-1 2
