%chk=JID_10207.chk
%mem=8GB
%nprocshared=4
# opt freq B3LYP/6-31G(d) empiricaldispersion=gd3bj scf=xqc

CID_43828770_JID_10207_neutraal

0 1
C          0.97927       -0.06771        0.07061
C          0.67027        0.95852        1.14576
C          1.05325        2.38424        0.75022
C          0.40887        2.91147       -0.53601
C         -1.11932        3.07562       -0.48813
N         -1.57941        4.02709        0.53089
C         -1.36903        5.41411        0.37670
C         -1.68637        6.25073        1.43535
C         -1.45151        7.63423        1.36732
C         -0.90259        8.19458        0.21244
C         -0.61175        7.36690       -0.87357
C         -0.84773        5.98935       -0.79179
C         -0.64448        9.65384        0.18317
O         -0.87710       10.43582        1.08443
O         -0.09489       10.05889       -0.97451
C         -2.26689        5.67570        2.64997
O         -2.51613        6.39876        3.60829
O         -2.53746        4.36191        2.67511
C         -2.20299        3.51644        1.66788
O         -2.46279        2.32112        1.79512
H          0.33161        0.05702       -0.80218
H          0.81405       -1.07816        0.45860
H          2.02172        0.00196       -0.25567
H         -0.39009        0.89882        1.40412
H          1.22517        0.69296        2.05379
H          0.82304        3.05847        1.58353
H          2.14284        2.42486        0.62287
H          0.88238        3.87209       -0.76493
H          0.66391        2.25559       -1.37619
H         -1.49612        3.40195       -1.46469
H         -1.57620        2.09314       -0.32645
H         -1.69263        8.27133        2.21859
H         -0.19551        7.77942       -1.79079
H         -0.60957        5.39500       -1.66937
H          0.02865       11.02428       -0.85116

--Link1--
%chk=JID_10207.chk
%mem=8GB
%nprocshared=4
# B3LYP/6-311++G(d,p) empiricaldispersion=gd3bj scf=xqc pop=npa geom=check

CID_43828770_JID_10207_Energie_neutraal

0 1

--Link1--
%chk=JID_10207.chk
%mem=8GB
%nprocshared=4
# B3LYP/6-311++G(d,p) empiricaldispersion=gd3bj scf=xqc pop=npa geom=check

CID_43828770_JID_10207_Energie_kation

1 2

--Link1--
%chk=JID_10207.chk
%mem=8GB
%nprocshared=4
# B3LYP/6-311++G(d,p) empiricaldispersion=gd3bj scf=xqc pop=npa geom=check

CID_43828770_JID_10207_Energie_anion

-1 2
