%chk=JID_7420.chk
%mem=8GB
%nprocshared=4
# opt freq B3LYP/6-31G(d) empiricaldispersion=gd3bj scf=xqc

CID_104693057_JID_7420_neutraal

0 1
C          0.97214        0.07428       -0.06088
C          0.71471       -0.61492       -1.39671
C          1.12604       -2.10385       -1.39333
C          2.64983       -2.31253       -1.45098
C          3.10895       -3.68175       -0.94025
C          2.44646       -4.89187       -1.60148
C          0.96701       -5.03471       -1.24247
C          0.01658       -4.24896       -2.14932
N          0.48106       -2.89294       -2.46745
C          0.07368       -2.34523       -3.68254
C         -1.19454       -2.60440       -4.22316
C         -1.59370       -2.04535       -5.44034
N         -0.76935       -1.26469       -6.15991
C          0.45380       -1.02277       -5.64938
C          0.90613       -1.52528       -4.43993
N         -2.88273       -2.35693       -5.91691
C         -3.23339       -1.68791       -7.15881
H          0.43942       -0.43102        0.75098
H          0.61939        1.11002       -0.10051
H          2.03708        0.09558        0.18599
H         -0.35751       -0.52565       -1.61128
H          1.24947       -0.06043       -2.17493
H          0.76656       -2.49499       -0.43232
H          3.15863       -1.55511       -0.84454
H          3.02309       -2.18275       -2.47199
H          4.19312       -3.75441       -1.09283
H          2.95148       -3.73052        0.14473
H          2.58770       -4.86657       -2.68822
H          2.96814       -5.78701       -1.23975
H          0.68839       -6.09409       -1.31331
H          0.80535       -4.75913       -0.19327
H         -0.09275       -4.83227       -3.07372
H         -0.97163       -4.20189       -1.67564
H         -1.89880       -3.23360       -3.69065
H          1.09248       -0.39359       -6.26206
H          1.91388       -1.29130       -4.12433
H         -3.55446       -2.16339       -5.18034
H         -4.24679       -1.98501       -7.44747
H         -3.22860       -0.59804       -7.04604
H         -2.56395       -1.97853       -7.97584

--Link1--
%chk=JID_7420.chk
%mem=8GB
%nprocshared=4
# B3LYP/6-311++G(d,p) empiricaldispersion=gd3bj scf=xqc pop=npa geom=check

CID_104693057_JID_7420_Energie_neutraal

0 1

--Link1--
%chk=JID_7420.chk
%mem=8GB
%nprocshared=4
# B3LYP/6-311++G(d,p) empiricaldispersion=gd3bj scf=xqc pop=npa geom=check

CID_104693057_JID_7420_Energie_kation

1 2

--Link1--
%chk=JID_7420.chk
%mem=8GB
%nprocshared=4
# B3LYP/6-311++G(d,p) empiricaldispersion=gd3bj scf=xqc pop=npa geom=check

CID_104693057_JID_7420_Energie_anion

-1 2
