%chk=JID_6907.chk
%mem=8GB
%nprocshared=4
# opt freq B3LYP/6-31G(d) empiricaldispersion=gd3bj scf=xqc

CID_62267643_JID_6907_neutraal

0 1
C          0.50700        1.57800        0.12600
C          1.35709        0.57645        0.90055
N          1.60605       -0.67948        0.19980
C          0.53415       -1.64454        0.46831
C         -0.83211       -1.36507       -0.19772
N         -1.42427       -0.03908        0.07712
C         -0.70415        1.02856       -0.63010
C         -2.86875       -0.01907       -0.24424
C         -3.21649       -0.22721       -1.68251
C         -3.47949       -1.34683       -2.44525
C         -3.74548       -0.89152       -3.76849
C         -3.64131        0.48223       -3.70976
O         -3.32480        0.89231       -2.45591
C         -4.06091       -1.64262       -4.95736
O         -4.28375       -1.17006       -6.06184
O         -4.09322       -2.98070       -4.77100
H          1.14402        2.10223       -0.59841
H          0.16471        2.34212        0.83628
H          2.32882        1.04601        1.09635
H          0.92295        0.39915        1.89295
H          1.67537       -0.51158       -0.80214
H          0.39864       -1.76227        1.55127
H          0.88100       -2.62199        0.11133
H         -1.51102       -2.14497        0.17240
H         -0.73247       -1.53059       -1.27855
H         -1.36354        1.89178       -0.79453
H         -0.39821        0.70154       -1.63303
H         -3.37892       -0.78059        0.35993
H         -3.29291        0.93532        0.09463
H         -3.47194       -2.37109       -2.09788
H         -3.75713        1.26833       -4.44405
H         -4.31359       -3.32332       -5.66144

--Link1--
%chk=JID_6907.chk
%mem=8GB
%nprocshared=4
# B3LYP/6-311++G(d,p) empiricaldispersion=gd3bj scf=xqc pop=npa geom=check

CID_62267643_JID_6907_Energie_neutraal

0 1

--Link1--
%chk=JID_6907.chk
%mem=8GB
%nprocshared=4
# B3LYP/6-311++G(d,p) empiricaldispersion=gd3bj scf=xqc pop=npa geom=check

CID_62267643_JID_6907_Energie_kation

1 2

--Link1--
%chk=JID_6907.chk
%mem=8GB
%nprocshared=4
# B3LYP/6-311++G(d,p) empiricaldispersion=gd3bj scf=xqc pop=npa geom=check

CID_62267643_JID_6907_Energie_anion

-1 2
