%chk=JID_10590.chk
%mem=8GB
%nprocshared=4
# opt freq B3LYP/6-31G(d) empiricaldispersion=gd3bj scf=xqc

CID_134187345_JID_10590_neutraal

0 1
C          1.34400       -0.22500        0.03600
C          0.73056        1.02834        0.11556
C         -0.66083        1.11374        0.22525
C         -1.44272       -0.04247        0.27335
C         -0.82273       -1.29182        0.20440
C          0.56857       -1.38802        0.09381
O          1.06318       -2.67035       -0.01417
C          2.38184       -2.88958        0.31194
C          3.21433       -3.38089       -0.70111
C          4.53906       -3.63854       -0.34359
C          5.03429       -3.44654        0.94295
C          4.17474       -2.97795        1.94844
C          2.83857       -2.71100        1.62175
N          6.36529       -3.77798        1.00850
C          6.68423       -4.16937       -0.20383
N          5.61595       -4.10522       -1.05339
S         -1.40997        2.71212        0.31469
O         -0.57784        3.56980        1.12712
O         -1.85897        3.07868       -1.00616
N         -2.80064        2.46447        1.22719
H          2.42358       -0.27233       -0.07978
H          1.33961        1.92949        0.07771
H         -2.52459        0.01417        0.35571
H         -1.42577       -2.19647        0.23310
H          2.84291       -3.54464       -1.70608
H          4.54616       -2.83596        2.95721
H          2.15884       -2.36426        2.39560
H          7.66077       -4.50786       -0.52373
H          5.61985       -4.35735       -2.03097
H         -2.73180        2.99420        2.09730
H         -3.61803        2.70810        0.66578

--Link1--
%chk=JID_10590.chk
%mem=8GB
%nprocshared=4
# B3LYP/6-311++G(d,p) empiricaldispersion=gd3bj scf=xqc pop=npa geom=check

CID_134187345_JID_10590_Energie_neutraal

0 1

--Link1--
%chk=JID_10590.chk
%mem=8GB
%nprocshared=4
# B3LYP/6-311++G(d,p) empiricaldispersion=gd3bj scf=xqc pop=npa geom=check

CID_134187345_JID_10590_Energie_kation

1 2

--Link1--
%chk=JID_10590.chk
%mem=8GB
%nprocshared=4
# B3LYP/6-311++G(d,p) empiricaldispersion=gd3bj scf=xqc pop=npa geom=check

CID_134187345_JID_10590_Energie_anion

-1 2
