%chk=JID_4589.chk
%mem=8GB
%nprocshared=4
# opt freq B3LYP/6-31G(d) empiricaldispersion=gd3bj scf=xqc

CID_148131665_JID_4589_neutraal

0 1
C          0.93068        0.07200       -0.00338
O         -0.09639        0.72842        0.72875
C          0.25870        1.29522        1.92130
C         -0.79093        1.90245        2.61355
C         -0.57073        2.51999        3.84692
C          0.70972        2.53234        4.41239
C          1.76386        1.93486        3.70866
C          1.53923        1.31621        2.47297
C          0.95827        3.22200        5.72541
N          1.29845        4.61272        5.51873
C          1.72224        5.49079        6.47844
O          2.01382        6.65383        6.25104
C          1.81195        4.97247        7.89353
N          0.76034        4.69325        8.59299
H          0.48329       -0.33533       -0.91516
H          1.34824       -0.76532        0.56556
H          1.71349        0.77672       -0.30273
H         -1.79096        1.89510        2.18604
H         -1.40733        2.98976        4.35966
H          2.77256        1.94680        4.11717
H          2.38631        0.86423        1.96774
H          0.06495        3.17086        6.35777
H          1.77081        2.73175        6.27406
H          1.22817        4.99858        4.58434
H          2.83311        4.83149        8.27823
H         -0.08634        4.92755        8.05910

--Link1--
%chk=JID_4589.chk
%mem=8GB
%nprocshared=4
# B3LYP/6-311++G(d,p) empiricaldispersion=gd3bj scf=xqc pop=npa geom=check

CID_148131665_JID_4589_Energie_neutraal

0 1

--Link1--
%chk=JID_4589.chk
%mem=8GB
%nprocshared=4
# B3LYP/6-311++G(d,p) empiricaldispersion=gd3bj scf=xqc pop=npa geom=check

CID_148131665_JID_4589_Energie_kation

1 2

--Link1--
%chk=JID_4589.chk
%mem=8GB
%nprocshared=4
# B3LYP/6-311++G(d,p) empiricaldispersion=gd3bj scf=xqc pop=npa geom=check

CID_148131665_JID_4589_Energie_anion

-1 2
