%chk=JID_9500.chk
%mem=8GB
%nprocshared=4
# opt freq B3LYP/6-31G(d) empiricaldispersion=gd3bj scf=xqc

CID_103355216_JID_9500_neutraal

0 1
C          1.00008        0.04142       -0.09102
C         -0.16342        0.56227        0.75719
C         -1.08159        1.44879       -0.08025
C         -0.94233       -0.61323        1.36276
O         -0.05325       -1.32018        2.22971
C         -0.15626       -2.69945        2.16690
C          0.91816       -3.41593        2.70309
C          0.80066       -4.79644        2.68764
C         -0.31750       -5.38857        2.09362
C         -1.33727       -4.60103        1.55632
N         -1.24416       -3.25726        1.58981
N         -2.44280       -5.17131        0.95200
C         -3.51811       -4.30026        0.46866
C         -4.80534       -5.06555        0.77018
C         -4.38040       -6.53166        0.78837
C         -2.97819       -6.44601        1.42489
C         -4.35009       -7.14586       -0.61071
O         -5.29095       -7.27398        1.59723
N          1.96491       -2.79788        3.40910
H          1.54872        0.87343       -0.54554
H          0.64442       -0.60797       -0.89832
H          1.71301       -0.52778        0.51421
H          0.26209        1.16360        1.57068
H         -1.52248        0.89174       -0.91391
H         -1.89774        1.84915        0.53014
H         -0.52830        2.29755       -0.49633
H         -1.78258       -0.24782        1.96398
H         -1.34203       -1.22075        0.54155
H          1.56709       -5.42277        3.13200
H         -0.37201       -6.47042        2.05773
H         -3.56385       -3.31680        0.94924
H         -3.39983       -4.15035       -0.61049
H         -5.59545       -4.85060        0.04332
H         -5.19149       -4.77086        1.75486
H         -2.35216       -7.29171        1.11917
H         -3.06012       -6.45713        2.51964
H         -4.02373       -8.19104       -0.56485
H         -5.35448       -7.15339       -1.04896
H         -3.68097       -6.60817       -1.28942
H         -4.98508       -8.19665        1.62646
H          2.04646       -1.81385        3.15507
H          2.84608       -3.29627        3.36104

--Link1--
%chk=JID_9500.chk
%mem=8GB
%nprocshared=4
# B3LYP/6-311++G(d,p) empiricaldispersion=gd3bj scf=xqc pop=npa geom=check

CID_103355216_JID_9500_Energie_neutraal

0 1

--Link1--
%chk=JID_9500.chk
%mem=8GB
%nprocshared=4
# B3LYP/6-311++G(d,p) empiricaldispersion=gd3bj scf=xqc pop=npa geom=check

CID_103355216_JID_9500_Energie_kation

1 2

--Link1--
%chk=JID_9500.chk
%mem=8GB
%nprocshared=4
# B3LYP/6-311++G(d,p) empiricaldispersion=gd3bj scf=xqc pop=npa geom=check

CID_103355216_JID_9500_Energie_anion

-1 2
