%chk=JID_6461.chk
%mem=8GB
%nprocshared=4
# opt freq B3LYP/6-31G(d) empiricaldispersion=gd3bj scf=xqc

CID_123525109_JID_6461_neutraal

0 1
C          1.07026        0.07113        0.00200
C         -0.19318        0.06721       -0.85928
C         -1.28960        0.96183       -0.23081
C         -2.48368        1.09192       -0.85576
C         -3.63650        0.46938       -0.21710
C         -3.90391       -0.85757       -0.27603
C         -3.16447       -2.01786       -0.99878
N         -1.87842       -1.54050       -1.55752
C         -0.94220       -1.25828       -0.71486
C         -2.98584       -3.21966       -0.05846
C         -4.01573       -2.45595       -2.22938
O         -5.31369       -2.93571       -1.87422
C          0.19454        0.42799       -2.29094
O          0.09967        1.54420       -2.78874
O          0.77434       -0.64229       -2.91401
C          1.17717       -0.38592       -4.25938
H          1.54889        1.05731       -0.00314
H          1.80351       -0.65363       -0.37095
H          0.86008       -0.19543        1.04452
H         -1.29950        0.92985        0.86089
H         -2.53268        1.02525       -1.94541
H         -4.30068        1.13847        0.32534
H         -4.79994       -1.18626        0.25241
H         -0.84933       -1.75421        0.26748
H         -2.51494       -2.93867        0.88953
H         -3.94814       -3.67616        0.19998
H         -2.36340       -3.99214       -0.52414
H         -4.13782       -1.63060       -2.94204
H         -3.50592       -3.26441       -2.76654
H         -5.86252       -2.14914       -1.71157
H          0.31510       -0.10146       -4.87074
H          1.94755        0.39091       -4.28689
H          1.60124       -1.30776       -4.66698

--Link1--
%chk=JID_6461.chk
%mem=8GB
%nprocshared=4
# B3LYP/6-311++G(d,p) empiricaldispersion=gd3bj scf=xqc pop=npa geom=check

CID_123525109_JID_6461_Energie_neutraal

0 1

--Link1--
%chk=JID_6461.chk
%mem=8GB
%nprocshared=4
# B3LYP/6-311++G(d,p) empiricaldispersion=gd3bj scf=xqc pop=npa geom=check

CID_123525109_JID_6461_Energie_kation

1 2

--Link1--
%chk=JID_6461.chk
%mem=8GB
%nprocshared=4
# B3LYP/6-311++G(d,p) empiricaldispersion=gd3bj scf=xqc pop=npa geom=check

CID_123525109_JID_6461_Energie_anion

-1 2
