%chk=JID_6006.chk
%mem=8GB
%nprocshared=4
# opt freq B3LYP/6-31G(d) empiricaldispersion=gd3bj scf=xqc

CID_80774637_JID_6006_neutraal

0 1
C         -2.37200       -0.01600        0.01400
C         -0.87617       -0.04078       -0.01314
N         -0.28283       -1.24106        0.02959
C          1.05064       -1.25091       -0.04973
C          1.77980       -0.07706       -0.14595
C          1.10810        1.13588       -0.16234
N         -0.23311        1.13505       -0.11070
N          1.79054        2.35642       -0.26250
C          3.14644        2.40451        0.28545
C          1.04348        3.62624       -0.20150
C          0.06791        3.86162       -1.36009
C         -0.97710        4.78953       -0.75561
C         -1.14817        4.26077        0.66060
C          0.25759        3.85560        1.09893
N          1.76212       -2.46710        0.00959
C          0.92132       -3.65091        0.08611
H         -2.76635       -0.44181       -0.91331
H         -2.74215       -0.60313        0.85980
H         -2.74702        1.00695        0.11440
H          2.85661       -0.13665       -0.20184
H          3.56084        3.41831        0.24638
H          3.16258        2.08482        1.33348
H          3.83359        1.78388       -0.29926
H          1.77226        4.44679       -0.27214
H          0.56642        4.32183       -2.21993
H         -0.40871        2.94772       -1.72455
H         -1.91489        4.78246       -1.31824
H         -0.59988        5.81887       -0.73109
H         -1.80599        3.38447        0.65561
H         -1.58959        5.00504        1.33009
H          0.23379        2.99489        1.77435
H          0.71941        4.67822        1.65917
H          2.40660       -2.51048       -0.77467
H          0.28283       -3.75022       -0.79854
H          1.56121       -4.53788        0.13403
H          0.30264       -3.64666        0.99029

--Link1--
%chk=JID_6006.chk
%mem=8GB
%nprocshared=4
# B3LYP/6-311++G(d,p) empiricaldispersion=gd3bj scf=xqc pop=npa geom=check

CID_80774637_JID_6006_Energie_neutraal

0 1

--Link1--
%chk=JID_6006.chk
%mem=8GB
%nprocshared=4
# B3LYP/6-311++G(d,p) empiricaldispersion=gd3bj scf=xqc pop=npa geom=check

CID_80774637_JID_6006_Energie_kation

1 2

--Link1--
%chk=JID_6006.chk
%mem=8GB
%nprocshared=4
# B3LYP/6-311++G(d,p) empiricaldispersion=gd3bj scf=xqc pop=npa geom=check

CID_80774637_JID_6006_Energie_anion

-1 2
