%chk=JID_8679.chk
%mem=8GB
%nprocshared=4
# opt freq B3LYP/6-31G(d) empiricaldispersion=gd3bj scf=xqc

CID_79847388_JID_8679_neutraal

0 1
C          0.93301       -0.02499        0.06992
C          0.55277       -0.04837       -1.42171
C          1.28883        1.21271       -1.98410
C          1.05893        1.62899       -3.43423
C          1.74168        0.69106       -4.41596
C          0.95034       -0.57481       -4.70063
C          0.07417       -1.08649       -3.55640
N          0.78455       -1.24993       -2.26829
C          0.89399       -2.69104       -1.80053
C          1.93845       -2.80671       -0.61839
C          2.20854       -4.22329       -0.09029
C          0.93326       -4.99123        0.22312
C         -0.12105       -4.89168       -0.87740
C         -0.46147       -3.43129       -1.31034
C         -1.13194       -2.72950       -0.10066
C         -1.60612       -3.52883       -2.34829
C          1.66327       -3.50302       -2.98584
N          0.97590       -3.92265       -4.21186
H          0.35290       -0.72126        0.67005
H          0.71083        0.95809        0.50546
H          2.00438       -0.19113        0.22192
H         -0.52459        0.16654       -1.43158
H          0.99184        2.07781       -1.37429
H          2.36975        1.09343       -1.82365
H          1.50298        2.62469       -3.56314
H         -0.00883        1.74187       -3.65178
H          2.73978        0.42465       -4.04625
H          1.90459        1.21564       -5.36567
H          1.64774       -1.35070       -5.03466
H          0.29044       -0.38337       -5.55730
H         -0.38858       -2.00359       -3.91203
H         -0.79384       -0.42284       -3.44370
H          1.60108       -2.26993        0.26139
H          2.89312       -2.35214       -0.91399
H          2.81104       -4.15021        0.82430
H          2.82827       -4.79589       -0.78675
H          0.51537       -4.62594        1.16839
H          1.17935       -6.04589        0.39554
H         -1.02885       -5.39730       -0.52129
H          0.21289       -5.47331       -1.74466
H         -0.48322       -2.66625        0.77411
H         -1.47293       -1.72332       -0.35985
H         -2.02108       -3.28302        0.22802
H         -2.00626       -2.54397       -2.60753
H         -1.32684       -4.04927       -3.26230
H         -2.45254       -4.09503       -1.93703
H          2.52387       -2.89098       -3.29080
H          2.10657       -4.42264       -2.60273
H          1.67560       -4.19666       -4.90072
H          0.43744       -4.76573       -4.02233

--Link1--
%chk=JID_8679.chk
%mem=8GB
%nprocshared=4
# B3LYP/6-311++G(d,p) empiricaldispersion=gd3bj scf=xqc pop=npa geom=check

CID_79847388_JID_8679_Energie_neutraal

0 1

--Link1--
%chk=JID_8679.chk
%mem=8GB
%nprocshared=4
# B3LYP/6-311++G(d,p) empiricaldispersion=gd3bj scf=xqc pop=npa geom=check

CID_79847388_JID_8679_Energie_kation

1 2

--Link1--
%chk=JID_8679.chk
%mem=8GB
%nprocshared=4
# B3LYP/6-311++G(d,p) empiricaldispersion=gd3bj scf=xqc pop=npa geom=check

CID_79847388_JID_8679_Energie_anion

-1 2
