%chk=JID_1538.chk
%mem=8GB
%nprocshared=4
# opt freq B3LYP/6-31G(d) empiricaldispersion=gd3bj scf=xqc

CID_137471261_JID_1538_neutraal

0 1
C          0.95306        0.01005        0.08773
C          0.10242        0.71338        1.13698
N          0.86927        1.77427        1.79399
C          0.91604        3.00936        0.95193
C          0.70721        3.81212        2.26077
C         -0.00039        2.53265        2.75139
N         -0.06981        5.05256        2.10088
C          0.60036        5.95549        1.16621
C         -1.53216        5.09405        2.00305
C         -2.18257        4.34814        0.83683
C         -2.22267        4.80636        3.34232
H          1.23975        0.69159       -0.71984
H          0.39183       -0.81854       -0.35633
H          1.86615       -0.40256        0.53012
H         -0.82209        1.07787        0.67165
H         -0.19115       -0.02739        1.89067
H          1.88042        3.17696        0.46069
H          0.13116        3.09147        0.19250
H          1.65216        3.98566        2.79780
H         -1.06676        2.41161        2.55700
H          0.17954        2.28799        3.80352
H          0.47439        5.64148        0.12480
H          0.21566        6.97674        1.26492
H          1.67447        6.01457        1.37764
H         -1.78613        6.15013        1.82624
H         -2.12465        3.26307        0.93581
H         -3.24617        4.60571        0.77308
H         -1.72873        4.63165       -0.11823
H         -1.76681        5.39306        4.14803
H         -3.27823        5.09796        3.29027
H         -2.19740        3.75649        3.63580

--Link1--
%chk=JID_1538.chk
%mem=8GB
%nprocshared=4
# B3LYP/6-311++G(d,p) empiricaldispersion=gd3bj scf=xqc pop=npa geom=check

CID_137471261_JID_1538_Energie_neutraal

0 1

--Link1--
%chk=JID_1538.chk
%mem=8GB
%nprocshared=4
# B3LYP/6-311++G(d,p) empiricaldispersion=gd3bj scf=xqc pop=npa geom=check

CID_137471261_JID_1538_Energie_kation

1 2

--Link1--
%chk=JID_1538.chk
%mem=8GB
%nprocshared=4
# B3LYP/6-311++G(d,p) empiricaldispersion=gd3bj scf=xqc pop=npa geom=check

CID_137471261_JID_1538_Energie_anion

-1 2
