%chk=JID_2172.chk
%mem=8GB
%nprocshared=4
# opt freq B3LYP/6-31G(d) empiricaldispersion=gd3bj scf=xqc

CID_116128717_JID_2172_neutraal

0 1
C          1.08202       -0.05433        0.01790
C         -0.16889       -0.56496        0.70737
O          0.08770       -1.31108        1.89208
C          0.67608       -2.61278        1.79554
C          0.27653       -3.41918        0.56131
C          2.20562       -2.55018        1.97380
N          2.59525       -2.14303        3.32281
C          3.83650       -1.80346        3.78069
O          4.01385       -1.72614        4.99782
C          4.93501       -1.43746        2.81283
C          5.30221       -2.61213        1.92080
N          5.60684       -3.58661        1.18079
H          1.75067        0.43162        0.73549
H          0.82025        0.66612       -0.76302
H          1.63967       -0.86610       -0.45591
H         -0.75924        0.30316        1.02134
H         -0.80456       -1.12870        0.01755
H          0.27570       -3.15847        2.65978
H          0.68728       -2.99113       -0.35777
H          0.63882       -4.44970        0.63776
H         -0.81279       -3.44773        0.45391
H          2.63584       -3.54500        1.81602
H          2.66749       -1.85982        1.26643
H          1.94765       -2.35515        4.07541
H          4.60781       -0.58931        2.20286
H          5.82064       -1.12723        3.37748

--Link1--
%chk=JID_2172.chk
%mem=8GB
%nprocshared=4
# B3LYP/6-311++G(d,p) empiricaldispersion=gd3bj scf=xqc pop=npa geom=check

CID_116128717_JID_2172_Energie_neutraal

0 1

--Link1--
%chk=JID_2172.chk
%mem=8GB
%nprocshared=4
# B3LYP/6-311++G(d,p) empiricaldispersion=gd3bj scf=xqc pop=npa geom=check

CID_116128717_JID_2172_Energie_kation

1 2

--Link1--
%chk=JID_2172.chk
%mem=8GB
%nprocshared=4
# B3LYP/6-311++G(d,p) empiricaldispersion=gd3bj scf=xqc pop=npa geom=check

CID_116128717_JID_2172_Energie_anion

-1 2
