%chk=JID_374.chk
%mem=8GB
%nprocshared=4
# opt freq B3LYP/6-31G(d) empiricaldispersion=gd3bj scf=xqc

CID_5320191_JID_374_neutraal

0 1
C          1.06315       -0.07056       -0.03215
C          0.72219       -0.67432        1.32113
C          1.08590        0.25582        2.44222
C          0.19314        0.78898        3.29105
C          0.55698        1.70888        4.42585
C          0.06240        3.14838        4.22894
C         -1.43676        3.28178        4.28044
C         -2.09844        3.92969        5.25274
C         -3.58265        4.08338        5.30491
O         -4.05320        3.45807        6.48739
H          0.51069        0.86011       -0.20047
H          0.80231       -0.76870       -0.83400
H          2.13333        0.14912       -0.11078
H         -0.34527       -0.92259        1.34662
H          1.27154       -1.61371        1.45098
H          2.14334        0.48820        2.55416
H         -0.86154        0.54439        3.18328
H          0.14979        1.29470        5.35656
H          1.64700        1.73362        4.55052
H          0.51919        3.77784        5.00316
H          0.41528        3.53896        3.26635
H         -1.99062        2.83397        3.45751
H         -1.54834        4.39062        6.07045
H         -3.85291        5.14270        5.34008
H         -4.08341        3.62794        4.44481
H         -3.70938        2.54843        6.47650

--Link1--
%chk=JID_374.chk
%mem=8GB
%nprocshared=4
# B3LYP/6-311++G(d,p) empiricaldispersion=gd3bj scf=xqc pop=npa geom=check

CID_5320191_JID_374_Energie_neutraal

0 1

--Link1--
%chk=JID_374.chk
%mem=8GB
%nprocshared=4
# B3LYP/6-311++G(d,p) empiricaldispersion=gd3bj scf=xqc pop=npa geom=check

CID_5320191_JID_374_Energie_kation

1 2

--Link1--
%chk=JID_374.chk
%mem=8GB
%nprocshared=4
# B3LYP/6-311++G(d,p) empiricaldispersion=gd3bj scf=xqc pop=npa geom=check

CID_5320191_JID_374_Energie_anion

-1 2
