%chk=JID_6505.chk
%mem=8GB
%nprocshared=4
# opt freq B3LYP/6-31G(d) empiricaldispersion=gd3bj scf=xqc

CID_64479730_JID_6505_neutraal

0 1
C          1.06371       -0.02717        0.07213
C          0.15006       -1.20261        0.40978
C          0.50266       -1.73407        1.80264
C         -1.33594       -0.82674        0.36560
S         -2.01682       -0.61597       -1.28348
O         -1.37072       -1.56648       -2.16468
O         -3.46201       -0.58406       -1.18122
N         -1.51581        0.95589       -1.73775
C         -1.51954        1.15547       -3.21612
C         -0.85523        2.48409       -3.56247
C         -1.54096        3.64227       -2.84704
C         -1.58510        3.42948       -1.32291
C         -2.24440        2.06381       -1.03615
C         -0.20803        3.56962       -0.61951
C          0.52003        4.87308       -0.95720
N         -0.38565        3.50959        0.83986
H          0.87422        0.82430        0.73234
H          0.93171        0.29561       -0.96354
H          2.11623       -0.30934        0.18596
H          0.34932       -2.00786       -0.30714
H          0.32714       -0.97629        2.57381
H         -0.10073       -2.61473        2.04748
H          1.55581       -2.03106        1.85156
H         -1.92630       -1.64838        0.79152
H         -1.55933        0.05998        0.96318
H         -2.54839        1.13138       -3.59428
H         -0.95151        0.35905       -3.70760
H         -0.90095        2.64350       -4.64577
H          0.20613        2.45255       -3.28950
H         -1.05754        4.58837       -3.10852
H         -2.57107        3.72320       -3.21965
H         -2.24587        4.20683       -0.91278
H         -2.27692        1.88094        0.04045
H         -3.28326        2.08826       -1.39023
H          0.44125        2.73759       -0.90969
H         -0.11465        5.74714       -0.77482
H          1.42909        4.98420       -0.35452
H          0.83760        4.88969       -2.00432
H          0.53068        3.53088        1.28959
H         -0.86619        4.35017        1.16239

--Link1--
%chk=JID_6505.chk
%mem=8GB
%nprocshared=4
# B3LYP/6-311++G(d,p) empiricaldispersion=gd3bj scf=xqc pop=npa geom=check

CID_64479730_JID_6505_Energie_neutraal

0 1

--Link1--
%chk=JID_6505.chk
%mem=8GB
%nprocshared=4
# B3LYP/6-311++G(d,p) empiricaldispersion=gd3bj scf=xqc pop=npa geom=check

CID_64479730_JID_6505_Energie_kation

1 2

--Link1--
%chk=JID_6505.chk
%mem=8GB
%nprocshared=4
# B3LYP/6-311++G(d,p) empiricaldispersion=gd3bj scf=xqc pop=npa geom=check

CID_64479730_JID_6505_Energie_anion

-1 2
