%chk=JID_10924.chk
%mem=8GB
%nprocshared=4
# opt freq B3LYP/6-31G(d) empiricaldispersion=gd3bj scf=xqc

CID_129781179_JID_10924_neutraal

0 1
C          1.07711        0.06336       -0.00633
C          0.52847        1.28659        0.64682
C          0.87990        2.54303        0.33629
N          0.36899        3.67700        0.91250
C         -0.47882        3.48382        1.86265
N         -0.90533        2.26835        2.31007
C         -0.49440        1.10861        1.70959
O         -0.93944       -0.00023        1.99024
C         -1.94680        2.30353        3.31117
C         -1.91370        3.65994        4.03891
S         -1.26490        4.78162        2.70795
C         -3.27636        4.13490        4.56775
C         -3.50084        5.49353        4.87028
C         -4.72224        5.92898        5.39003
C         -5.74095        5.01546        5.63711
C         -5.53593        3.66530        5.37358
C         -4.31525        3.22721        4.85200
C         -0.84032        3.54907        5.15845
O          0.36742        3.44963        4.94231
N         -1.26578        3.45608        6.45671
H          0.27692       -0.50588       -0.49046
H          1.56434       -0.58053        0.73307
H          1.81949        0.31033       -0.77261
H          1.62235        2.72376       -0.43799
H         -2.88771        2.14921        2.76624
H         -1.82778        1.45428        3.99563
H         -2.72433        6.23973        4.70379
H         -4.87654        6.98502        5.59949
H         -6.69285        5.35528        6.03738
H         -6.32899        2.94854        5.57524
H         -4.20038        2.15800        4.68497
H         -2.18496        3.76377        6.75163
H         -0.53892        3.44740        7.16247

--Link1--
%chk=JID_10924.chk
%mem=8GB
%nprocshared=4
# B3LYP/6-311++G(d,p) empiricaldispersion=gd3bj scf=xqc pop=npa geom=check

CID_129781179_JID_10924_Energie_neutraal

0 1

--Link1--
%chk=JID_10924.chk
%mem=8GB
%nprocshared=4
# B3LYP/6-311++G(d,p) empiricaldispersion=gd3bj scf=xqc pop=npa geom=check

CID_129781179_JID_10924_Energie_kation

1 2

--Link1--
%chk=JID_10924.chk
%mem=8GB
%nprocshared=4
# B3LYP/6-311++G(d,p) empiricaldispersion=gd3bj scf=xqc pop=npa geom=check

CID_129781179_JID_10924_Energie_anion

-1 2
