%chk=JID_9688.chk
%mem=8GB
%nprocshared=4
# opt freq B3LYP/6-31G(d) empiricaldispersion=gd3bj scf=xqc

CID_108063347_JID_9688_neutraal

0 1
C         -2.77800        0.45500        0.00500
C         -1.45068       -0.21195        0.06432
C         -1.18727       -1.55976        0.26637
S          0.51790       -1.81258        0.24856
C          0.76684       -0.13908       -0.01416
N         -0.32597        0.58372       -0.09945
C          2.14440        0.41334       -0.11902
C         -2.11283       -2.72910        0.47125
C         -2.84186       -2.69849        1.80486
C         -2.06823       -3.04824        2.92186
N         -2.50139       -3.07754        4.19698
C         -3.78712       -2.72862        4.39128
C         -4.67075       -2.35608        3.38016
C         -5.99678       -2.00368        3.69228
C         -6.88911       -1.63033        2.69303
C         -6.46371       -1.61013        1.37396
C         -5.14645       -1.96022        1.05597
C         -4.20168       -2.34040        2.04234
O         -2.95082       -2.80344       -0.67622
H         -3.25771        0.44228        0.98750
H         -2.67298        1.50131       -0.30039
H         -3.42944       -0.03652       -0.72267
H          2.14402        1.31580       -0.73880
H          2.51904        0.68198        0.87365
H          2.83802       -0.30196       -0.57216
H         -1.54222       -3.66784        0.45060
H         -1.02202       -3.32938        2.81411
H         -4.10242       -2.75739        5.43146
H         -6.34297       -2.01781        4.72389
H         -7.91092       -1.35910        2.94380
H         -7.15196       -1.32393        0.58254
H         -4.87807       -1.92584        0.00517
H         -2.36112       -2.84137       -1.44881

--Link1--
%chk=JID_9688.chk
%mem=8GB
%nprocshared=4
# B3LYP/6-311++G(d,p) empiricaldispersion=gd3bj scf=xqc pop=npa geom=check

CID_108063347_JID_9688_Energie_neutraal

0 1

--Link1--
%chk=JID_9688.chk
%mem=8GB
%nprocshared=4
# B3LYP/6-311++G(d,p) empiricaldispersion=gd3bj scf=xqc pop=npa geom=check

CID_108063347_JID_9688_Energie_kation

1 2

--Link1--
%chk=JID_9688.chk
%mem=8GB
%nprocshared=4
# B3LYP/6-311++G(d,p) empiricaldispersion=gd3bj scf=xqc pop=npa geom=check

CID_108063347_JID_9688_Energie_anion

-1 2
