%chk=JID_4333.chk
%mem=8GB
%nprocshared=4
# opt freq B3LYP/6-31G(d) empiricaldispersion=gd3bj scf=xqc

CID_116421980_JID_4333_neutraal

0 1
C          0.98507       -0.07541       -0.06395
C          0.54162       -1.28162        0.79188
C          0.92945       -1.01033        2.27272
C          0.39975        0.26424        2.94236
S         -1.30074        0.16144        3.58623
C         -2.16100        1.10889        2.30726
N         -0.86502       -1.65758        0.55576
C         -1.26847       -1.68606       -0.84306
C         -1.41808       -2.76991        1.35067
C         -1.14019       -4.28777        1.05653
C          0.36827       -4.58138        0.94266
C         -1.65209       -5.08527        2.28637
C         -1.81606       -4.84363       -0.22647
S         -3.63247       -4.71599       -0.33225
H          0.30369        0.77477        0.04550
H          1.03344       -0.33737       -1.12653
H          1.98968        0.25819        0.21948
H          1.17672       -2.10938        0.46149
H          0.72855       -1.88349        2.90358
H          2.02672       -0.92682        2.28734
H          1.02400        0.44969        3.82460
H          0.51908        1.14654        2.30741
H         -1.79675        2.13955        2.29328
H         -2.02816        0.66306        1.32093
H         -3.23008        1.12561        2.53553
H         -0.63692       -2.35118       -1.43930
H         -2.31376       -1.99088       -0.95305
H         -1.22404       -0.68591       -1.28675
H         -1.16377       -2.59651        2.40069
H         -2.50728       -2.62521        1.35322
H          0.92339       -4.16416        1.78926
H          0.55927       -5.66131        0.93023
H          0.78666       -4.17888        0.01511
H         -2.69913       -4.85883        2.51319
H         -1.56737       -6.16596        2.12470
H         -1.06904       -4.84178        3.18259
H         -1.40489       -4.36842       -1.12008
H         -1.58253       -5.91090       -0.32686
H         -3.91317       -5.57341        0.65968

--Link1--
%chk=JID_4333.chk
%mem=8GB
%nprocshared=4
# B3LYP/6-311++G(d,p) empiricaldispersion=gd3bj scf=xqc pop=npa geom=check

CID_116421980_JID_4333_Energie_neutraal

0 1

--Link1--
%chk=JID_4333.chk
%mem=8GB
%nprocshared=4
# B3LYP/6-311++G(d,p) empiricaldispersion=gd3bj scf=xqc pop=npa geom=check

CID_116421980_JID_4333_Energie_kation

1 2

--Link1--
%chk=JID_4333.chk
%mem=8GB
%nprocshared=4
# B3LYP/6-311++G(d,p) empiricaldispersion=gd3bj scf=xqc pop=npa geom=check

CID_116421980_JID_4333_Energie_anion

-1 2
