%chk=JID_2836.chk
%mem=8GB
%nprocshared=4
# opt freq B3LYP/6-31G(d) empiricaldispersion=gd3bj scf=xqc

CID_10678616_JID_2836_neutraal

0 1
C          0.95758        0.06721        0.06070
C          0.16914       -0.89055       -0.77915
O         -1.05164       -0.90655       -0.83280
O          1.01590       -1.68889       -1.47822
C          0.41474       -2.70835       -2.29397
C          0.86967       -4.09827       -1.89346
C          1.85984       -4.27361       -0.90625
C          2.24666       -5.54688       -0.48996
C          1.64108       -6.66598       -1.04475
C          0.67166       -6.50881       -2.03520
C          0.31793       -5.23806       -2.51345
N         -0.73676       -5.14560       -3.43641
H          0.30267        0.50908        0.81708
H          1.36718        0.85891       -0.57087
H          1.76160       -0.46144        0.58014
H         -0.67927       -2.66143       -2.26919
H          0.74264       -2.51754       -3.32211
H          2.33182       -3.41424       -0.43564
H          3.00270       -5.66057        0.28228
H          1.91233       -7.66052       -0.70200
H          0.19048       -7.39622       -2.43869
H         -0.73112       -4.31149       -4.01218
H         -0.86275       -5.98440       -3.99513

--Link1--
%chk=JID_2836.chk
%mem=8GB
%nprocshared=4
# B3LYP/6-311++G(d,p) empiricaldispersion=gd3bj scf=xqc pop=npa geom=check

CID_10678616_JID_2836_Energie_neutraal

0 1

--Link1--
%chk=JID_2836.chk
%mem=8GB
%nprocshared=4
# B3LYP/6-311++G(d,p) empiricaldispersion=gd3bj scf=xqc pop=npa geom=check

CID_10678616_JID_2836_Energie_kation

1 2

--Link1--
%chk=JID_2836.chk
%mem=8GB
%nprocshared=4
# B3LYP/6-311++G(d,p) empiricaldispersion=gd3bj scf=xqc pop=npa geom=check

CID_10678616_JID_2836_Energie_anion

-1 2
