%chk=JID_5096.chk
%mem=8GB
%nprocshared=4
# opt freq B3LYP/6-31G(d) empiricaldispersion=gd3bj scf=xqc

CID_82234813_JID_5096_neutraal

0 1
C          2.27900       -0.09200       -0.00100
C          0.80046       -0.13942        0.00533
C         -0.11076       -1.17862        0.02764
N         -1.39491       -0.68225        0.02919
C         -1.28977        0.63097        0.00025
N          0.03315        0.99840       -0.01515
C         -2.39967        1.64729       -0.00824
C         -3.30659        1.46898        1.21849
C         -4.45511        2.47538        1.20250
C         -5.19838        2.42287       -0.12878
C         -4.23787        2.55440       -1.30937
N         -3.18346        1.54976       -1.24724
C          0.12332       -2.65917        0.04684
C         -0.46522       -3.29964        1.30505
C         -0.44163       -3.32596       -1.20868
H          2.64172        0.44674       -0.88238
H          2.64901        0.42123        0.89243
H          2.71625       -1.09418       -0.01800
H          0.37769        1.94739       -0.03830
H         -1.94621        2.64760        0.03652
H         -2.72605        1.59373        2.14109
H         -3.71964        0.45139        1.24512
H         -5.14619        2.26983        2.02730
H         -4.05746        3.48564        1.35933
H         -5.74339        1.47317       -0.20315
H         -5.94548        3.22357       -0.16733
H         -4.79832        2.42521       -2.24169
H         -3.80198        3.56044       -1.33492
H         -2.56681        1.61481       -2.05332
H          1.20390       -2.84648        0.05939
H         -1.55379       -3.18015        1.34695
H         -0.24228       -4.37150        1.33602
H         -0.04624       -2.84256        2.20849
H         -0.00479       -2.88864       -2.11350
H         -0.21972       -4.39845       -1.21271
H         -1.52901       -3.20599       -1.27414

--Link1--
%chk=JID_5096.chk
%mem=8GB
%nprocshared=4
# B3LYP/6-311++G(d,p) empiricaldispersion=gd3bj scf=xqc pop=npa geom=check

CID_82234813_JID_5096_Energie_neutraal

0 1

--Link1--
%chk=JID_5096.chk
%mem=8GB
%nprocshared=4
# B3LYP/6-311++G(d,p) empiricaldispersion=gd3bj scf=xqc pop=npa geom=check

CID_82234813_JID_5096_Energie_kation

1 2

--Link1--
%chk=JID_5096.chk
%mem=8GB
%nprocshared=4
# B3LYP/6-311++G(d,p) empiricaldispersion=gd3bj scf=xqc pop=npa geom=check

CID_82234813_JID_5096_Energie_anion

-1 2
