%chk=JID_8543.chk
%mem=8GB
%nprocshared=4
# opt freq B3LYP/6-31G(d) empiricaldispersion=gd3bj scf=xqc

CID_65963557_JID_8543_neutraal

0 1
C          0.96763       -0.06681       -0.06700
C          0.05880        1.18128        0.03009
C          0.95153        2.38059        0.41158
C          0.29433        3.75873        0.35572
C          0.05613        4.24767       -1.06952
N         -1.19850        3.81661       -1.67736
C         -1.69364        2.45912       -1.44499
C         -0.62483        1.36710       -1.34586
C         -1.70642        4.63511       -2.68639
O         -1.05401        5.55891       -3.17387
N         -2.98999        4.37480       -3.10769
C         -3.74286        5.19485       -4.05590
C         -4.87213        5.24833       -3.02074
C         -4.16293        4.11013       -2.27656
C         -6.29833        5.00561       -3.53846
O         -6.81873        5.45757       -4.55106
O         -7.03775        4.18840       -2.74912
C         -0.97292        0.90694        1.14278
H          0.38426       -0.96699       -0.29201
H          1.50125       -0.24412        0.87384
H          1.71783        0.04917       -0.85755
H          1.33190        2.22838        1.43101
H          1.84081        2.39573       -0.23337
H          0.99315        4.46011        0.83043
H         -0.62560        3.79454        0.94816
H          0.87318        3.94836       -1.73720
H          0.06054        5.34492       -1.04797
H         -2.33683        2.17334       -2.28364
H         -2.33270        2.49099       -0.55883
H          0.13419        1.52398       -2.12365
H         -1.11991        0.41854       -1.59833
H         -3.29486        6.16318       -4.29455
H         -3.96118        4.65005       -4.97965
H         -4.83958        6.18519       -2.44427
H         -4.56395        3.10526       -2.43944
H         -4.01976        4.29011       -1.20761
H         -7.90259        4.14182       -3.21100
H         -1.63202        0.07475        0.87075
H         -0.47442        0.63795        2.08154
H         -1.60336        1.77404        1.35664

--Link1--
%chk=JID_8543.chk
%mem=8GB
%nprocshared=4
# B3LYP/6-311++G(d,p) empiricaldispersion=gd3bj scf=xqc pop=npa geom=check

CID_65963557_JID_8543_Energie_neutraal

0 1

--Link1--
%chk=JID_8543.chk
%mem=8GB
%nprocshared=4
# B3LYP/6-311++G(d,p) empiricaldispersion=gd3bj scf=xqc pop=npa geom=check

CID_65963557_JID_8543_Energie_kation

1 2

--Link1--
%chk=JID_8543.chk
%mem=8GB
%nprocshared=4
# B3LYP/6-311++G(d,p) empiricaldispersion=gd3bj scf=xqc pop=npa geom=check

CID_65963557_JID_8543_Energie_anion

-1 2
