%chk=JID_9610.chk
%mem=8GB
%nprocshared=4
# opt=(cartesian,calcfc,maxcycle=500) freq B3LYP/6-31G(d) empiricaldispersion=gd3bj scf=xqc

CID_108118181_JID_9610_neutraal

0 1
6	5.061171	 -1.258156	 -1.054306
6	5.044417	 -0.469785	 0.263574
7	3.765200	 -0.025345	 0.712055
6	2.735299	 -1.011304	 1.012711
6	1.523542	 -0.162781	 1.366398
6	1.604313	 1.007842	 0.362706
6	3.100539	 1.040817	 -0.071842
6	0.713821	 0.796693	 -0.867896
7	-0.705707	 0.789101	 -0.571241
6	-1.522209	 -0.353668	 -0.438106
6	-1.275697	 -1.701598	 -0.637648
6	-2.353319	 -2.573628	 -0.406151
6	-3.604304	 -2.082157	 -0.007823
6	-3.857477	 -0.726038	 0.189640
6	-2.771170	 0.155179	 -0.036140
7	-2.727791	 1.548153	 0.086120
6	-1.514845	 1.835786	 -0.223264
7	-0.983152	 3.154621	 -0.170694
6	-5.198171	 -0.188464	 0.601589
1	4.501144	 -2.197612	 -0.975162
1	6.092140	 -1.509800	 -1.338255
1	4.628198	 -0.686428	 -1.887178
1	5.482106	 -1.091141	 1.054297
1	5.691980	 0.413258	 0.162545
1	3.059010	 -1.656324	 1.850819
1	2.519076	 -1.681662	 0.157089
1	0.582534	 -0.717441	 1.279792
1	1.616481	 0.210109	 2.399485
1	1.299804	 1.952827	 0.836145
1	3.183065	 0.830851	 -1.151308
1	3.576853	 2.017026	 0.108128
1	0.913524	 1.587163	 -1.618398
1	0.959563	 -0.148418	 -1.360152
1	-0.305380	 -2.088977	 -0.943658
1	-2.211604	 -3.641608	 -0.537682
1	-4.416117	 -2.785719	 0.157296
1	-0.360514	 3.384101	 -0.935678
1	-1.717999	 3.813295	 -0.071415
1	-5.836224	 -0.986079	 0.991927
1	-5.094404	 0.595503	 1.358880
1	-5.718553	 0.268937	 -0.251839

--Link1--
%chk=JID_9610.chk
%mem=8GB
%nprocshared=4
# B3LYP/6-311++G(d,p) empiricaldispersion=gd3bj scf=xqc pop=npa geom=check

CID_108118181_JID_9610_Energie_neutraal

0 1

--Link1--
%chk=JID_9610.chk
%mem=8GB
%nprocshared=4
# B3LYP/6-311++G(d,p) empiricaldispersion=gd3bj scf=xqc pop=npa geom=check

CID_108118181_JID_9610_Energie_kation

1 2

--Link1--
%chk=JID_9610.chk
%mem=8GB
%nprocshared=4
# B3LYP/6-311++G(d,p) empiricaldispersion=gd3bj scf=xqc pop=npa geom=check

CID_108118181_JID_9610_Energie_anion

-1 2
