%chk=JID_4145.chk
%mem=8GB
%nprocshared=4
# opt freq B3LYP/6-31G(d) empiricaldispersion=gd3bj scf=xqc

CID_83263659_JID_4145_neutraal

0 1
C          1.06011       -0.05653        0.05649
C          1.24737       -0.94496       -1.16092
C          1.71106       -2.36869       -0.82574
C          0.76261       -3.17926        0.08015
C         -0.63211       -3.37695       -0.56374
O         -0.50419       -3.94936       -1.87050
C         -1.77464       -4.11997       -2.48553
N          1.29076       -4.47524        0.56511
C          2.58587       -5.04161        0.28237
N          2.56954       -6.32830        0.99972
C          1.69903       -6.11764        2.16638
C          0.77598       -5.00412        1.74868
O         -0.20388       -4.61459        2.36386
C          2.90202       -5.32307       -1.18241
H          0.21459       -0.38430        0.66804
H          0.85780        0.97251       -0.25794
H          1.95912       -0.04868        0.68072
H          0.31886       -0.97127       -1.74155
H          2.00199       -0.48613       -1.81172
H          1.84343       -2.88303       -1.78196
H          2.69993       -2.30530       -0.35544
H          0.60270       -2.59424        0.99474
H         -1.26036       -4.03050        0.05165
H         -1.14022       -2.40930       -0.64776
H         -2.39758       -4.80033       -1.89701
H         -2.27655       -3.15426       -2.60116
H         -1.62199       -4.55423       -3.47697
H          3.35475       -4.39832        0.72665
H          2.09047       -6.99218        0.39023
H          2.28479       -5.79883        3.03315
H          1.13209       -7.02228        2.40018
H          3.21297       -4.42001       -1.71075
H          3.74306       -6.02107       -1.27454
H          2.04265       -5.75127       -1.70936

--Link1--
%chk=JID_4145.chk
%mem=8GB
%nprocshared=4
# B3LYP/6-311++G(d,p) empiricaldispersion=gd3bj scf=xqc pop=npa geom=check

CID_83263659_JID_4145_Energie_neutraal

0 1

--Link1--
%chk=JID_4145.chk
%mem=8GB
%nprocshared=4
# B3LYP/6-311++G(d,p) empiricaldispersion=gd3bj scf=xqc pop=npa geom=check

CID_83263659_JID_4145_Energie_kation

1 2

--Link1--
%chk=JID_4145.chk
%mem=8GB
%nprocshared=4
# B3LYP/6-311++G(d,p) empiricaldispersion=gd3bj scf=xqc pop=npa geom=check

CID_83263659_JID_4145_Energie_anion

-1 2
