%chk=JID_10412.chk
%mem=8GB
%nprocshared=4
# opt freq B3LYP/6-31G(d) empiricaldispersion=gd3bj scf=xqc

CID_82065105_JID_10412_neutraal

0 1
C          2.26000        1.82000        0.03500
C          1.05808        0.95953        0.29086
C         -0.06333        1.48931        0.93591
C         -1.20598        0.70637        1.17572
C         -1.24806       -0.62320        0.69881
C         -0.10953       -1.16722        0.06306
C          1.02341       -0.36587       -0.14860
C         -0.10055       -2.59509       -0.41462
N         -2.34513       -1.48368        0.96819
C         -3.61051       -1.24419        0.53755
N         -4.65609       -1.51210        1.28773
C         -5.83379       -1.17718        0.64086
C         -5.66915       -0.67082       -0.63661
S         -3.99877       -0.62371       -1.02412
C         -6.69474       -0.21906       -1.62458
C         -6.87044        1.27682       -1.58063
O         -6.81164        2.03239       -2.53850
O         -7.19174        1.75755       -0.36235
C         -7.11569       -1.39750        1.36095
C         -2.35742        1.33695        1.91331
H          2.11125        2.40926       -0.87506
H          2.43568        2.49977        0.87541
H          3.16269        1.21162       -0.08422
H         -0.04213        2.52510        1.27100
H          1.88938       -0.78277       -0.65935
H         -0.26108       -3.27875        0.42530
H         -0.88110       -2.74903       -1.16661
H          0.85794       -2.85958       -0.87388
H         -2.33020       -1.75977        1.94568
H         -6.40101       -0.50342       -2.64180
H         -7.66762       -0.68477       -1.43319
H         -7.27131        2.72480       -0.50152
H         -7.65153       -2.24800        0.92847
H         -6.93724       -1.60903        2.42006
H         -7.75630       -0.51277        1.29904
H         -2.03442        2.22831        2.46242
H         -3.13889        1.64062        1.21061
H         -2.77409        0.64901        2.65551

--Link1--
%chk=JID_10412.chk
%mem=8GB
%nprocshared=4
# B3LYP/6-311++G(d,p) empiricaldispersion=gd3bj scf=xqc pop=npa geom=check

CID_82065105_JID_10412_Energie_neutraal

0 1

--Link1--
%chk=JID_10412.chk
%mem=8GB
%nprocshared=4
# B3LYP/6-311++G(d,p) empiricaldispersion=gd3bj scf=xqc pop=npa geom=check

CID_82065105_JID_10412_Energie_kation

1 2

--Link1--
%chk=JID_10412.chk
%mem=8GB
%nprocshared=4
# B3LYP/6-311++G(d,p) empiricaldispersion=gd3bj scf=xqc pop=npa geom=check

CID_82065105_JID_10412_Energie_anion

-1 2
