%chk=JID_10860.chk
%mem=8GB
%nprocshared=4
# opt freq B3LYP/6-31G(d) empiricaldispersion=gd3bj scf=xqc

CID_61433881_JID_10860_neutraal

0 1
C         -0.02900        0.88300        0.00000
C         -1.32984        0.22334        0.34316
C         -0.13800       -0.62316       -0.01163
N          0.04784       -1.37747       -1.27712
C          1.39811       -1.13667       -1.82789
C          1.90898       -2.23604       -2.78330
O          2.81614       -1.70101       -3.76588
C          2.17501       -0.96914       -4.73057
C          2.52919        0.37206       -4.85550
C          1.85918        1.18542       -5.77238
C          0.88527        0.65188       -6.62023
C          0.53908       -0.69574       -6.48211
C          1.20306       -1.51451       -5.56424
N          0.11138        1.49759       -7.42349
C         -0.98626       -1.18545       -2.30975
C         -2.25998       -1.91184       -1.95508
C         -3.52432       -1.45703       -2.29078
S         -4.77301       -2.50222       -1.77176
C         -3.64837       -3.59841       -1.10185
C         -2.34990       -3.17373       -1.27316
H          0.53735        1.33972        0.80340
H          0.02596        1.42157       -0.93815
H         -1.64521        0.22744        1.38127
H         -2.15140        0.35732       -0.34616
H          0.32269       -1.13532        0.83399
H          1.43543       -0.14406       -2.29027
H          2.12310       -1.09216       -1.00278
H          2.47646       -2.97089       -2.19899
H          1.10836       -2.81040       -3.26025
H          3.29144        0.79615       -4.20848
H          2.10169        2.24396       -5.81323
H         -0.25528       -1.12127       -7.08919
H          0.93856       -2.56548       -5.49925
H         -0.32916        1.02695       -8.20769
H          0.59309        2.34526       -7.70716
H         -1.17401       -0.12058       -2.49384
H         -0.67122       -1.60637       -3.27013
H         -3.77675       -0.54742       -2.81892
H         -3.99045       -4.50122       -0.61558
H         -1.49269       -3.73187       -0.91550

--Link1--
%chk=JID_10860.chk
%mem=8GB
%nprocshared=4
# B3LYP/6-311++G(d,p) empiricaldispersion=gd3bj scf=xqc pop=npa geom=check

CID_61433881_JID_10860_Energie_neutraal

0 1

--Link1--
%chk=JID_10860.chk
%mem=8GB
%nprocshared=4
# B3LYP/6-311++G(d,p) empiricaldispersion=gd3bj scf=xqc pop=npa geom=check

CID_61433881_JID_10860_Energie_kation

1 2

--Link1--
%chk=JID_10860.chk
%mem=8GB
%nprocshared=4
# B3LYP/6-311++G(d,p) empiricaldispersion=gd3bj scf=xqc pop=npa geom=check

CID_61433881_JID_10860_Energie_anion

-1 2
