%chk=JID_7414.chk
%mem=8GB
%nprocshared=4
# opt freq B3LYP/6-31G(d) empiricaldispersion=gd3bj scf=xqc

CID_79280082_JID_7414_neutraal

0 1
C          0.99183        0.07392        0.06685
C          0.21382       -0.51132       -0.85310
C         -1.22019       -0.84673       -0.60712
N         -2.06601       -0.24232       -1.63053
C         -3.48919       -0.35886       -1.25949
C         -3.84919        0.67725       -0.18617
O         -3.69320        1.88443       -0.39433
N         -4.33791        0.30330        1.02745
C         -4.35585       -1.00627        1.65904
C         -3.15976       -1.16416        2.55635
N         -2.15357       -1.98035        2.31956
C         -1.16752       -1.84307        3.30074
C         -1.48825       -0.93724        4.29630
S         -3.02349       -0.23927        4.00222
C          0.09157       -2.58201        3.26602
O          0.98715       -2.49050        4.09519
O          0.23083       -3.41333        2.20812
H          0.61463        0.34673        1.04732
H          2.03078        0.30058       -0.15137
H          0.62810       -0.77184       -1.82389
H         -1.33702       -1.93606       -0.62131
H         -1.50048       -0.47966        0.38165
H         -1.84877        0.75726       -1.68673
H         -4.09747       -0.11811       -2.13908
H         -3.74325       -1.38231       -0.98206
H         -4.47457        1.10143        1.63635
H         -5.27944       -1.07333        2.24315
H         -4.37321       -1.80099        0.91162
H         -0.89703       -0.65877        5.15844
H          1.11999       -3.80076        2.32902

--Link1--
%chk=JID_7414.chk
%mem=8GB
%nprocshared=4
# B3LYP/6-311++G(d,p) empiricaldispersion=gd3bj scf=xqc pop=npa geom=check

CID_79280082_JID_7414_Energie_neutraal

0 1

--Link1--
%chk=JID_7414.chk
%mem=8GB
%nprocshared=4
# B3LYP/6-311++G(d,p) empiricaldispersion=gd3bj scf=xqc pop=npa geom=check

CID_79280082_JID_7414_Energie_kation

1 2

--Link1--
%chk=JID_7414.chk
%mem=8GB
%nprocshared=4
# B3LYP/6-311++G(d,p) empiricaldispersion=gd3bj scf=xqc pop=npa geom=check

CID_79280082_JID_7414_Energie_anion

-1 2
