%chk=JID_7115.chk
%mem=8GB
%nprocshared=4
# opt freq B3LYP/6-31G(d) empiricaldispersion=gd3bj scf=xqc

CID_112701851_JID_7115_neutraal

0 1
C          1.09372        0.00603        0.03436
C         -0.33579       -0.42988       -0.24281
C         -0.71617       -1.76076        0.41453
C         -0.55143       -1.81533        1.94557
C         -1.00029       -3.16842        2.50258
C         -2.50834       -3.01296        2.67806
N         -2.72459       -1.58868        2.87951
C         -1.47432       -0.85801        2.70038
C         -3.87229       -0.88539        3.19565
O         -3.78582        0.34462        3.31470
C         -5.26918       -1.57258        3.25842
C         -5.68060       -2.00012        1.82477
C         -6.44852       -3.30217        1.99898
C         -5.72153       -3.99685        3.13391
C         -5.37313       -2.86731        4.10171
C         -6.32046       -0.53286        3.77133
N         -6.23478       -0.22219        5.20240
H          1.23646        0.26421        1.08779
H          1.33686        0.89393       -0.55820
H          1.80450       -0.78295       -0.23061
H         -1.02482        0.36231        0.06821
H         -0.46261       -0.53658       -1.32718
H         -1.75238       -1.98959        0.13592
H         -0.10041       -2.55378       -0.02967
H          0.49700       -1.63130        2.20246
H         -0.53475       -3.32811        3.48364
H         -0.73869       -4.02052        1.86819
H         -3.03994       -3.33062        1.77830
H         -2.84555       -3.59313        3.53549
H         -1.07798       -0.65240        3.70233
H         -1.63325        0.09811        2.19571
H         -6.29560       -1.24732        1.31857
H         -4.81322       -2.16744        1.17840
H         -6.46015       -3.90159        1.08414
H         -7.48691       -3.09581        2.28346
H         -4.82164       -4.49298        2.76087
H         -6.34234       -4.76324        3.60845
H         -4.48203       -3.08036        4.69606
H         -6.19672       -2.80976        4.82306
H         -6.22772        0.40416        3.20829
H         -7.33658       -0.89766        3.57439
H         -6.72973        0.65057        5.38284
H         -6.70979       -0.93607        5.75010

--Link1--
%chk=JID_7115.chk
%mem=8GB
%nprocshared=4
# B3LYP/6-311++G(d,p) empiricaldispersion=gd3bj scf=xqc pop=npa geom=check

CID_112701851_JID_7115_Energie_neutraal

0 1

--Link1--
%chk=JID_7115.chk
%mem=8GB
%nprocshared=4
# B3LYP/6-311++G(d,p) empiricaldispersion=gd3bj scf=xqc pop=npa geom=check

CID_112701851_JID_7115_Energie_kation

1 2

--Link1--
%chk=JID_7115.chk
%mem=8GB
%nprocshared=4
# B3LYP/6-311++G(d,p) empiricaldispersion=gd3bj scf=xqc pop=npa geom=check

CID_112701851_JID_7115_Energie_anion

-1 2
