%chk=JID_7501.chk
%mem=8GB
%nprocshared=4
# opt freq B3LYP/6-31G(d) empiricaldispersion=gd3bj scf=xqc

CID_151290756_JID_7501_neutraal

0 1
C          1.34400       -0.22500        0.03600
C          0.89017        1.08672        0.14652
C         -0.47435        1.36702        0.04048
C         -1.40693        0.34259       -0.18570
C         -0.92948       -0.97604       -0.28530
C          0.43476       -1.25756       -0.17769
C         -2.84866        0.63059       -0.30086
C         -3.39980        1.45480       -1.31115
C         -4.79153        1.67697       -1.41725
C         -5.62225        1.12308       -0.43650
C         -5.10414        0.30806        0.56896
C         -3.73364        0.06009        0.63091
N         -5.35709        2.58373       -2.32566
C         -2.50859        2.06226       -2.32538
O         -2.08806        3.20544       -2.17436
N         -2.19970        1.32079       -3.45648
N         -2.60307       -0.00498       -3.68729
H          2.40597       -0.44121        0.11830
H          1.59579        1.89654        0.31397
H         -0.80560        2.40104        0.13242
H         -1.62177       -1.79871       -0.45220
H          0.78705       -2.28244       -0.26053
H         -6.68929        1.33402       -0.44257
H         -5.76752       -0.11732        1.31825
H         -3.34955       -0.56587        1.43541
H         -4.78888        2.81546       -3.13634
H         -6.33508        2.43453       -2.54791
H         -1.55993        1.76779       -4.11166
H         -2.12077       -0.60689       -3.01399
H         -3.60230       -0.09522       -3.48821

--Link1--
%chk=JID_7501.chk
%mem=8GB
%nprocshared=4
# B3LYP/6-311++G(d,p) empiricaldispersion=gd3bj scf=xqc pop=npa geom=check

CID_151290756_JID_7501_Energie_neutraal

0 1

--Link1--
%chk=JID_7501.chk
%mem=8GB
%nprocshared=4
# B3LYP/6-311++G(d,p) empiricaldispersion=gd3bj scf=xqc pop=npa geom=check

CID_151290756_JID_7501_Energie_kation

1 2

--Link1--
%chk=JID_7501.chk
%mem=8GB
%nprocshared=4
# B3LYP/6-311++G(d,p) empiricaldispersion=gd3bj scf=xqc pop=npa geom=check

CID_151290756_JID_7501_Energie_anion

-1 2
