%chk=JID_1473.chk
%mem=8GB
%nprocshared=4
# opt freq B3LYP/6-31G(d) empiricaldispersion=gd3bj scf=xqc

CID_23558114_JID_1473_neutraal

0 1
C          0.93853       -0.03814       -0.06904
C          0.35842        0.64263       -1.30431
N          0.99517        0.22233       -2.55638
C          0.25465        0.63604       -3.75348
C          0.07300        2.13236       -3.98422
C          2.45490        0.42907       -2.64415
C          2.93337        1.87075       -2.47935
O          2.68264        2.58523       -1.51677
O          3.70042        2.20716       -3.57141
C          4.34916        3.44168       -3.73384
C          4.54897        4.40736       -2.83209
H          0.93259       -1.12766       -0.17911
H          0.33613        0.21172        0.81075
H          1.96362        0.28603        0.13348
H         -0.70406        0.36989       -1.34419
H          0.39013        1.72834       -1.16829
H          0.72756        0.19715       -4.64117
H         -0.74143        0.17635       -3.71299
H          1.02354        2.63651       -4.17154
H         -0.55515        2.29250       -4.86736
H         -0.42305        2.62005       -3.14026
H          2.97427       -0.17330       -1.88994
H          2.81181        0.03453       -3.60421
H          4.71403        3.50646       -4.75302
H          5.08206        5.31108       -3.10923
H          4.20399        4.34092       -1.80673

--Link1--
%chk=JID_1473.chk
%mem=8GB
%nprocshared=4
# B3LYP/6-311++G(d,p) empiricaldispersion=gd3bj scf=xqc pop=npa geom=check

CID_23558114_JID_1473_Energie_neutraal

0 1

--Link1--
%chk=JID_1473.chk
%mem=8GB
%nprocshared=4
# B3LYP/6-311++G(d,p) empiricaldispersion=gd3bj scf=xqc pop=npa geom=check

CID_23558114_JID_1473_Energie_kation

1 2

--Link1--
%chk=JID_1473.chk
%mem=8GB
%nprocshared=4
# B3LYP/6-311++G(d,p) empiricaldispersion=gd3bj scf=xqc pop=npa geom=check

CID_23558114_JID_1473_Energie_anion

-1 2
