%chk=JID_10776.chk
%mem=8GB
%nprocshared=4
# opt freq B3LYP/6-31G(d) empiricaldispersion=gd3bj scf=xqc

CID_152001765_JID_10776_neutraal

0 1
C          0.90160       -0.00940        0.01515
C          0.46862        1.39916        0.39091
C          0.65739        2.42163       -0.73140
C         -0.02805        2.11990       -2.07537
C         -1.54692        2.38524       -2.18122
C         -2.37083        1.56237       -1.15324
O         -2.35701        0.34029       -1.04437
N         -3.10194        2.44353       -0.38760
C         -2.81741        3.74163       -0.72691
O         -3.25474        4.77449       -0.24735
N         -1.88710        3.72682       -1.74118
N         -3.92782        2.00113        0.60740
N         -4.52553        2.85907        1.28710
N         -5.09287        3.60387        1.93864
C         -1.99956        2.16814       -3.63459
C         -2.56054        0.95405       -4.06926
C         -2.92464        0.76115       -5.40540
C         -2.72206        1.77063       -6.33998
C         -2.14905        2.97303       -5.94139
C         -1.78673        3.16810       -4.60580
H          0.25036       -0.44690       -0.74597
H          0.86057       -0.66011        0.89474
H          1.92925       -0.01701       -0.36169
H         -0.56614        1.38763        0.74255
H          1.07036        1.72491        1.24877
H          0.35604        3.41037       -0.36671
H          1.73595        2.49673       -0.92564
H          0.47743        2.75788       -2.81527
H          0.19381        1.09170       -2.38475
H         -1.57467        4.59118       -2.16124
H         -2.71702        0.12033       -3.38748
H         -3.35969       -0.18638       -5.71504
H         -3.00113        1.61556       -7.37882
H         -1.97575        3.75901       -6.67235
H         -1.31956        4.11365       -4.34115

--Link1--
%chk=JID_10776.chk
%mem=8GB
%nprocshared=4
# B3LYP/6-311++G(d,p) empiricaldispersion=gd3bj scf=xqc pop=npa geom=check

CID_152001765_JID_10776_Energie_neutraal

0 1

--Link1--
%chk=JID_10776.chk
%mem=8GB
%nprocshared=4
# B3LYP/6-311++G(d,p) empiricaldispersion=gd3bj scf=xqc pop=npa geom=check

CID_152001765_JID_10776_Energie_kation

1 2

--Link1--
%chk=JID_10776.chk
%mem=8GB
%nprocshared=4
# B3LYP/6-311++G(d,p) empiricaldispersion=gd3bj scf=xqc pop=npa geom=check

CID_152001765_JID_10776_Energie_anion

-1 2
