%chk=JID_7823.chk
%mem=8GB
%nprocshared=4
# opt freq B3LYP/6-31G(d) empiricaldispersion=gd3bj scf=xqc

CID_151361675_JID_7823_neutraal

0 1
C          0.95454        0.03587       -0.08153
C          0.38617       -0.54854       -1.34947
C          0.34464       -1.94107       -1.52988
C         -0.20198       -2.51775       -2.67131
C         -0.68662       -1.69485       -3.68193
C         -0.64524       -0.29178       -3.56666
C         -0.10302        0.29411       -2.39000
C         -0.07770        1.70631       -2.31202
C         -0.56482        2.51367       -3.34284
C         -1.09422        1.93364       -4.48730
C         -1.13193        0.54508       -4.59376
O         -1.65786       -0.02240       -5.72800
O          0.77630       -2.79787       -0.50981
C          2.05209       -3.28914       -0.70741
O          2.81180       -3.05278       -1.63605
C          2.44330       -4.19433        0.40034
C          1.68719       -4.49744        1.46395
H          1.22348       -0.72744        0.65426
H          0.21770        0.68760        0.39958
H          1.86129        0.60761       -0.30435
H         -0.24598       -3.59663       -2.78182
H         -1.10184       -2.15478       -4.57681
H          0.33121        2.20497       -1.43617
H         -0.52698        3.59568       -3.24640
H         -1.46984        2.57210       -5.28026
H         -1.91715        0.68444       -6.34040
H          3.43620       -4.61883        0.29136
H          2.06102       -5.17265        2.22755
H          0.69035       -4.09198        1.60748

--Link1--
%chk=JID_7823.chk
%mem=8GB
%nprocshared=4
# B3LYP/6-311++G(d,p) empiricaldispersion=gd3bj scf=xqc pop=npa geom=check

CID_151361675_JID_7823_Energie_neutraal

0 1

--Link1--
%chk=JID_7823.chk
%mem=8GB
%nprocshared=4
# B3LYP/6-311++G(d,p) empiricaldispersion=gd3bj scf=xqc pop=npa geom=check

CID_151361675_JID_7823_Energie_kation

1 2

--Link1--
%chk=JID_7823.chk
%mem=8GB
%nprocshared=4
# B3LYP/6-311++G(d,p) empiricaldispersion=gd3bj scf=xqc pop=npa geom=check

CID_151361675_JID_7823_Energie_anion

-1 2
