%chk=JID_6148.chk
%mem=8GB
%nprocshared=4
# opt freq B3LYP/6-31G(d) empiricaldispersion=gd3bj scf=xqc

CID_104060000_JID_6148_neutraal

0 1
C          0.93376       -0.05737        0.04818
C          1.25314       -1.33674       -0.70244
O          1.44557       -2.39981        0.23222
C          2.70112       -2.95582        0.25186
C          2.82802       -4.35917        0.35446
N          4.04836       -4.94340        0.46281
C          5.14177       -4.15101        0.47803
C          5.09732       -2.77294        0.39919
C          3.85292       -2.16579        0.29544
N          1.68204       -5.18498        0.35579
C          1.93174       -6.52644        0.91335
C          0.61215       -7.32819        0.97161
N         -0.08379       -7.42874       -0.33199
C         -0.26944       -6.07627       -0.91781
C          1.03996       -5.23756       -0.97176
C         -1.39345       -5.31502       -0.20680
H          0.05976       -0.19778        0.69287
H          0.72931        0.76073       -0.64822
H          1.76417        0.23395        0.69867
H          0.39169       -1.60956       -1.32235
H          2.09836       -1.19555       -1.38664
H          6.08849       -4.67584        0.56835
H          6.00733       -2.18531        0.43697
H          3.79255       -1.08324        0.28051
H          2.65305       -7.08100        0.29777
H          2.33319       -6.44859        1.93149
H         -0.06247       -6.88350        1.71231
H          0.82712       -8.34328        1.32431
H          0.53041       -7.94974       -0.95879
H         -0.60193       -6.22732       -1.95274
H          0.79864       -4.23990       -1.35364
H          1.72684       -5.70201       -1.69333
H         -1.61591       -4.38295       -0.73808
H         -2.31387       -5.90885       -0.18576
H         -1.13496       -5.05190        0.82371

--Link1--
%chk=JID_6148.chk
%mem=8GB
%nprocshared=4
# B3LYP/6-311++G(d,p) empiricaldispersion=gd3bj scf=xqc pop=npa geom=check

CID_104060000_JID_6148_Energie_neutraal

0 1

--Link1--
%chk=JID_6148.chk
%mem=8GB
%nprocshared=4
# B3LYP/6-311++G(d,p) empiricaldispersion=gd3bj scf=xqc pop=npa geom=check

CID_104060000_JID_6148_Energie_kation

1 2

--Link1--
%chk=JID_6148.chk
%mem=8GB
%nprocshared=4
# B3LYP/6-311++G(d,p) empiricaldispersion=gd3bj scf=xqc pop=npa geom=check

CID_104060000_JID_6148_Energie_anion

-1 2
