%chk=JID_9224.chk
%mem=8GB
%nprocshared=4
# opt freq B3LYP/6-31G(d) empiricaldispersion=gd3bj scf=xqc

CID_154445947_JID_9224_neutraal

0 1
C          0.95757        0.04765        0.07700
C          0.43793       -0.81991        1.18678
O          0.13998       -0.39320        2.29479
O          0.40451       -2.11926        0.76388
C          0.15081       -3.05807        1.69805
C         -1.08838       -3.38721        2.21884
C         -2.44158       -2.92187        2.05251
C         -3.43371       -3.49797        2.78895
C         -3.13301       -4.57689        3.72507
C         -1.88047       -5.01726        3.87348
N         -0.87105       -4.42787        3.12518
C          0.46698       -4.75352        3.12522
C          1.12052       -3.92997        2.23807
O         -4.18946       -5.11050        4.42402
O         -4.77921       -3.20786        2.77298
O         -2.53764       -1.90995        1.06866
C         -3.62425       -1.14856        0.76953
O         -4.71804       -1.19486        1.31665
C         -3.29376       -0.21939       -0.35845
H          0.74577        1.09553        0.30798
H          0.45138       -0.19881       -0.86037
H          2.03664       -0.09040       -0.02265
H         -1.61563       -5.81702        4.55183
H          0.83859       -5.54935        3.75679
H          2.17881       -3.94949        2.01528
H         -4.97036       -4.60539        4.11402
H         -4.92403       -2.39507        2.24294
H         -2.51462        0.48033       -0.04720
H         -2.97092       -0.79481       -1.22986
H         -4.18768        0.34859       -0.63241

--Link1--
%chk=JID_9224.chk
%mem=8GB
%nprocshared=4
# B3LYP/6-311++G(d,p) empiricaldispersion=gd3bj scf=xqc pop=npa geom=check

CID_154445947_JID_9224_Energie_neutraal

0 1

--Link1--
%chk=JID_9224.chk
%mem=8GB
%nprocshared=4
# B3LYP/6-311++G(d,p) empiricaldispersion=gd3bj scf=xqc pop=npa geom=check

CID_154445947_JID_9224_Energie_kation

1 2

--Link1--
%chk=JID_9224.chk
%mem=8GB
%nprocshared=4
# B3LYP/6-311++G(d,p) empiricaldispersion=gd3bj scf=xqc pop=npa geom=check

CID_154445947_JID_9224_Energie_anion

-1 2
