%chk=JID_8953.chk
%mem=8GB
%nprocshared=4
# opt freq B3LYP/6-31G(d) empiricaldispersion=gd3bj scf=xqc

CID_11021049_JID_8953_neutraal

0 1
C          1.85400        1.50000       -0.02200
C          0.56617        0.74588        0.16821
C          0.45653       -0.61883       -0.17013
C         -0.76641       -1.27935        0.03021
C         -1.86703       -0.59859        0.55109
C         -1.75113        0.74121        0.91592
C         -0.54267        1.41010        0.71757
O         -3.01464       -1.33222        0.75225
C         -4.20736       -0.75335        0.39011
C         -5.26330       -0.85201        1.28538
C         -6.51419       -0.31040        0.95752
C         -6.75526        0.33943       -0.26793
C         -5.67036        0.37922       -1.16486
C         -4.41437       -0.15888       -0.84906
N         -8.00978        0.86837       -0.59621
C         -9.01090        1.03075        0.45624
C         -8.11143        1.80382       -1.71503
C          1.61838       -1.38162       -0.74484
H          2.63016        1.09462        0.63462
H          2.18513        1.43546       -1.06326
H          1.73637        2.56244        0.21659
H         -0.87096       -2.33214       -0.22170
H         -2.58996        1.27033        1.35893
H         -0.47092        2.45773        1.00200
H         -5.12194       -1.34734        2.24168
H         -7.30062       -0.41971        1.69757
H         -5.77481        0.82493       -2.14911
H         -3.61439       -0.11404       -1.58248
H         -8.65304        1.70853        1.23913
H         -9.94231        1.44861        0.05766
H         -9.28176        0.06609        0.89864
H         -7.47698        2.68230       -1.55317
H         -7.84042        1.32209       -2.66051
H         -9.13982        2.15973       -1.84450
H          1.37164       -2.43825       -0.89386
H          1.90037       -0.96650       -1.71751
H          2.47617       -1.33911       -0.06621

--Link1--
%chk=JID_8953.chk
%mem=8GB
%nprocshared=4
# B3LYP/6-311++G(d,p) empiricaldispersion=gd3bj scf=xqc pop=npa geom=check

CID_11021049_JID_8953_Energie_neutraal

0 1

--Link1--
%chk=JID_8953.chk
%mem=8GB
%nprocshared=4
# B3LYP/6-311++G(d,p) empiricaldispersion=gd3bj scf=xqc pop=npa geom=check

CID_11021049_JID_8953_Energie_kation

1 2

--Link1--
%chk=JID_8953.chk
%mem=8GB
%nprocshared=4
# B3LYP/6-311++G(d,p) empiricaldispersion=gd3bj scf=xqc pop=npa geom=check

CID_11021049_JID_8953_Energie_anion

-1 2
