%chk=JID_5818.chk
%mem=8GB
%nprocshared=4
# opt freq B3LYP/6-31G(d) empiricaldispersion=gd3bj scf=xqc

CID_115747430_JID_5818_neutraal

0 1
C          1.08365        0.04056       -0.03685
C          0.40017       -1.31327        0.18972
C          0.59417       -1.71472        1.65935
C         -1.10178       -1.28605       -0.20948
C         -1.23083       -1.02254       -1.73343
O         -1.04953       -1.92875       -2.55514
N         -1.54705        0.22617       -2.18489
C         -2.08695        1.30842       -1.39850
N         -1.70048       -2.61736        0.07325
C         -3.14190       -2.57383        0.33299
C         -3.99249       -2.13380       -0.81437
N         -4.82615       -1.11082       -0.83167
C         -5.39696       -1.11526       -2.07781
C         -4.89836       -2.14426       -2.83721
N         -4.00564       -2.78591       -2.02477
H          0.60420        0.83036        0.55062
H          1.06195        0.33138       -1.09108
H          2.13717       -0.00374        0.26094
H          0.92424       -2.05159       -0.43279
H          0.05332       -1.03669        2.32839
H          0.24275       -2.73385        1.84866
H          1.65443       -1.68512        1.93364
H         -1.61430       -0.51715        0.37673
H         -1.70122        0.25061       -3.18549
H         -1.39450        1.56793       -0.59569
H         -2.22858        2.17289       -2.05134
H         -3.04518        1.00559       -0.97196
H         -1.49289       -3.22475       -0.72150
H         -3.46032       -3.58086        0.62801
H         -3.33766       -1.93337        1.20150
H         -6.13215       -0.37412       -2.36294
H         -5.08554       -2.46241       -3.85247
H         -3.41438       -3.56628       -2.27791

--Link1--
%chk=JID_5818.chk
%mem=8GB
%nprocshared=4
# B3LYP/6-311++G(d,p) empiricaldispersion=gd3bj scf=xqc pop=npa geom=check

CID_115747430_JID_5818_Energie_neutraal

0 1

--Link1--
%chk=JID_5818.chk
%mem=8GB
%nprocshared=4
# B3LYP/6-311++G(d,p) empiricaldispersion=gd3bj scf=xqc pop=npa geom=check

CID_115747430_JID_5818_Energie_kation

1 2

--Link1--
%chk=JID_5818.chk
%mem=8GB
%nprocshared=4
# B3LYP/6-311++G(d,p) empiricaldispersion=gd3bj scf=xqc pop=npa geom=check

CID_115747430_JID_5818_Energie_anion

-1 2
