%chk=JID_9088.chk
%mem=8GB
%nprocshared=4
# opt freq B3LYP/6-31G(d) empiricaldispersion=gd3bj scf=xqc

CID_54539311_JID_9088_neutraal

0 1
C          2.49200        0.00400       -0.01400
C          1.00424        0.03368        0.18275
C          0.15785       -0.62612       -0.71926
C         -1.22387       -0.63226       -0.51920
C         -1.76280        0.01736        0.59496
C         -0.92770        0.66358        1.51206
C          0.45278        0.66624        1.30555
C         -3.22881        0.02476        0.81339
S         -4.02682       -1.38501        1.29056
C         -3.95924        1.32109        0.62935
C         -3.44182        2.40850        0.03535
C         -4.17781        3.67082       -0.13149
C         -3.47852        4.88010       -0.01746
C         -4.12303        6.11006       -0.19168
C         -5.48331        6.13169       -0.49601
C         -6.18802        4.93334       -0.63022
C         -5.53856        3.70982       -0.45488
O         -3.31505        7.20373       -0.03997
C         -3.92253        8.47935       -0.20123
H          2.91991       -0.86221        0.49987
H          2.74459       -0.05496       -1.07791
H          2.95530        0.91490        0.37945
H          0.57180       -1.14228       -1.58309
H         -1.86893       -1.14405       -1.22888
H         -1.34310        1.15622        2.38753
H          1.09794        1.16190        2.02806
H         -4.97911        1.33108        1.00709
H         -2.42515        2.41939       -0.34938
H         -2.41636        4.87785        0.21906
H         -6.02408        7.06077       -0.64074
H         -7.24656        4.95228       -0.87799
H         -6.10763        2.79251       -0.58556
H         -4.31469        8.60442       -1.21594
H         -4.70394        8.64216        0.54842
H         -3.15026        9.23915       -0.04716

--Link1--
%chk=JID_9088.chk
%mem=8GB
%nprocshared=4
# B3LYP/6-311++G(d,p) empiricaldispersion=gd3bj scf=xqc pop=npa geom=check

CID_54539311_JID_9088_Energie_neutraal

0 1

--Link1--
%chk=JID_9088.chk
%mem=8GB
%nprocshared=4
# B3LYP/6-311++G(d,p) empiricaldispersion=gd3bj scf=xqc pop=npa geom=check

CID_54539311_JID_9088_Energie_kation

1 2

--Link1--
%chk=JID_9088.chk
%mem=8GB
%nprocshared=4
# B3LYP/6-311++G(d,p) empiricaldispersion=gd3bj scf=xqc pop=npa geom=check

CID_54539311_JID_9088_Energie_anion

-1 2
