%chk=JID_9527.chk
%mem=8GB
%nprocshared=4
# opt freq B3LYP/6-31G(d) empiricaldispersion=gd3bj scf=xqc

CID_66011752_JID_9527_neutraal

0 1
C          0.92174        0.05128        0.03530
C          0.72974        0.88849       -1.22967
C          1.39539        0.21975       -2.43285
C         -0.71348        1.22663       -1.49592
N         -1.05466        2.51602       -1.64726
N         -2.37995        2.48455       -1.89793
C         -2.92353        1.22407       -1.87217
C         -1.84936        0.38968       -1.62982
N         -1.89379       -1.02385       -1.55233
O         -1.59088       -1.65111       -2.57300
O         -2.21948       -1.50660       -0.46016
O         -4.22746        1.05377       -2.10675
C         -4.98529        0.32929       -1.12161
C         -6.42021        0.22258       -1.65376
C         -7.11960        1.58242       -1.62939
C         -7.04731        2.22298       -0.24459
N         -5.66683        2.34457        0.22564
C         -4.99926        1.03268        0.25622
C         -3.08744        3.72775       -2.09964
H          0.52821       -0.96327       -0.08029
H          0.41944        0.51209        0.89298
H          1.98645       -0.03712        0.27797
H          1.26456        1.83402       -1.05888
H          0.97298       -0.76915       -2.63571
H          1.27303        0.82670       -3.33682
H          2.46916        0.09209       -2.25762
H         -4.58770       -0.68561       -1.02786
H         -6.41685       -0.15829       -2.68168
H         -6.98741       -0.48646       -1.03843
H         -6.65850        2.24928       -2.36878
H         -8.16819        1.45996       -1.92371
H         -7.49510        3.22179       -0.28730
H         -7.63683        1.63839        0.47229
H         -5.66624        2.74038        1.16612
H         -5.49786        0.38835        0.99117
H         -3.97596        1.18722        0.61364
H         -3.26668        4.17822       -1.12051
H         -2.46877        4.38593       -2.71546
H         -4.03394        3.53821       -2.61073

--Link1--
%chk=JID_9527.chk
%mem=8GB
%nprocshared=4
# B3LYP/6-311++G(d,p) empiricaldispersion=gd3bj scf=xqc pop=npa geom=check

CID_66011752_JID_9527_Energie_neutraal

0 1

--Link1--
%chk=JID_9527.chk
%mem=8GB
%nprocshared=4
# B3LYP/6-311++G(d,p) empiricaldispersion=gd3bj scf=xqc pop=npa geom=check

CID_66011752_JID_9527_Energie_kation

1 2

--Link1--
%chk=JID_9527.chk
%mem=8GB
%nprocshared=4
# B3LYP/6-311++G(d,p) empiricaldispersion=gd3bj scf=xqc pop=npa geom=check

CID_66011752_JID_9527_Energie_anion

-1 2
