%chk=JID_9830.chk
%mem=8GB
%nprocshared=4
# opt freq B3LYP/6-31G(d) empiricaldispersion=gd3bj scf=xqc

CID_47112742_JID_9830_neutraal

0 1
C          2.49200        0.00400       -0.01400
C          1.02599       -0.11626       -0.30624
C          0.47991       -1.33532       -0.71636
C         -0.88217       -1.44656       -1.03171
C         -1.71974       -0.33591       -0.95903
C         -1.16616        0.88659       -0.55037
C          0.19185        0.99965       -0.23542
N         -3.09714       -0.32457       -1.24228
C         -3.96789       -1.26420       -1.73997
O         -5.17307       -1.02628       -1.80727
C         -3.47868       -2.62906       -2.21242
O         -2.83420       -2.73002       -3.24795
N         -3.79955       -3.72725       -1.44510
C         -4.75169       -3.75867       -0.34474
C         -6.18629       -4.02188       -0.82629
N         -6.29025       -5.27484       -1.56107
C         -6.51076       -6.52561       -1.06557
O         -6.43276       -7.49922       -1.81066
C         -6.85323       -6.66087        0.39220
H          2.88320       -0.92831        0.40669
H          3.03910        0.23540       -0.93305
H          2.68123        0.79528        0.71900
H          1.11242       -2.21750       -0.79809
H         -1.22685       -2.42861       -1.32542
H         -1.78213        1.78053       -0.48209
H          0.59090        1.96701        0.06163
H         -3.57901        0.54924       -1.06829
H         -3.52503       -4.61050       -1.85971
H         -4.42166       -4.56029        0.32395
H         -4.70770       -2.81733        0.21077
H         -6.86751       -4.03980        0.02915
H         -6.51940       -3.23566       -1.50993
H         -6.06332       -5.26261       -2.54969
H         -6.04904       -6.25855        1.01239
H         -7.79220       -6.14335        0.60508
H         -6.97939       -7.71965        0.63754

--Link1--
%chk=JID_9830.chk
%mem=8GB
%nprocshared=4
# B3LYP/6-311++G(d,p) empiricaldispersion=gd3bj scf=xqc pop=npa geom=check

CID_47112742_JID_9830_Energie_neutraal

0 1

--Link1--
%chk=JID_9830.chk
%mem=8GB
%nprocshared=4
# B3LYP/6-311++G(d,p) empiricaldispersion=gd3bj scf=xqc pop=npa geom=check

CID_47112742_JID_9830_Energie_kation

1 2

--Link1--
%chk=JID_9830.chk
%mem=8GB
%nprocshared=4
# B3LYP/6-311++G(d,p) empiricaldispersion=gd3bj scf=xqc pop=npa geom=check

CID_47112742_JID_9830_Energie_anion

-1 2
