%chk=JID_5651.chk
%mem=8GB
%nprocshared=4
# opt freq B3LYP/6-31G(d) empiricaldispersion=gd3bj scf=xqc

CID_116539797_JID_5651_neutraal

0 1
C          1.05202       -0.05427       -0.06594
C          0.92146       -1.38903       -0.78534
C          1.45448       -2.57974        0.01863
N          0.61732       -2.85552        1.18895
C          1.07705       -4.02424        1.94650
C          0.86663       -5.34094        1.18358
C          0.22169       -6.29451        2.18023
C         -0.65026       -5.39610        3.08033
C          0.28798       -4.18397        3.26318
C         -1.95293       -4.98698        2.36356
C         -1.01314       -6.10325        4.38296
C         -1.28715       -7.44865        4.57303
C         -1.63141       -7.76167        5.91894
C         -1.62646       -6.64597        6.72181
S         -1.22880       -5.23223        5.85174
H          0.43767       -0.02145        0.83863
H          0.72250        0.75877       -0.72085
H          2.09222        0.13845        0.21509
H         -0.12866       -1.55721       -1.05412
H          1.48001       -1.32987       -1.72736
H          1.46880       -3.44871       -0.64853
H          2.48798       -2.38160        0.32677
H          0.61800       -2.03938        1.80073
H          2.13748       -3.89574        2.19905
H          1.81074       -5.73785        0.79540
H          0.19808       -5.21229        0.32353
H          1.00845       -6.78979        2.76526
H         -0.35101       -7.07741        1.67105
H         -0.25346       -3.27440        3.55092
H          1.01607       -4.37523        4.06402
H         -2.57694       -5.86335        2.15169
H         -2.54670       -4.30556        2.98411
H         -1.76955       -4.48018        1.41150
H         -1.24849       -8.18257        3.77701
H         -1.87686       -8.75409        6.27656
H         -1.85032       -6.58941        7.77818

--Link1--
%chk=JID_5651.chk
%mem=8GB
%nprocshared=4
# B3LYP/6-311++G(d,p) empiricaldispersion=gd3bj scf=xqc pop=npa geom=check

CID_116539797_JID_5651_Energie_neutraal

0 1

--Link1--
%chk=JID_5651.chk
%mem=8GB
%nprocshared=4
# B3LYP/6-311++G(d,p) empiricaldispersion=gd3bj scf=xqc pop=npa geom=check

CID_116539797_JID_5651_Energie_kation

1 2

--Link1--
%chk=JID_5651.chk
%mem=8GB
%nprocshared=4
# B3LYP/6-311++G(d,p) empiricaldispersion=gd3bj scf=xqc pop=npa geom=check

CID_116539797_JID_5651_Energie_anion

-1 2
