%chk=JID_6903.chk
%mem=8GB
%nprocshared=4
# opt freq B3LYP/6-31G(d) empiricaldispersion=gd3bj scf=xqc

CID_79493650_JID_6903_neutraal

0 1
C          1.05304        0.06602        0.05319
C          1.01632        1.11937       -1.04580
C          1.74009        0.68396       -2.32442
C          1.10976       -0.50776       -3.00154
C         -0.15513       -0.40567       -3.59156
C         -0.75154       -1.51808       -4.18960
C         -0.09422       -2.75828       -4.21676
C          1.18249       -2.84980       -3.64343
C          1.77664       -1.73763       -3.04111
C         -0.75048       -3.99603       -4.81975
C         -2.03520       -4.39930       -3.99106
O         -3.20152       -3.77136       -4.55267
C         -4.29468       -3.78908       -3.64369
O         -2.20658       -5.81684       -3.85294
C         -2.41528       -6.51661       -5.06777
N         -1.00105       -3.76874       -6.26286
H          0.49885       -0.83313       -0.23258
H          0.59657        0.46099        0.96649
H          2.08305       -0.22146        0.28703
H         -0.02703        1.37743       -1.26158
H          1.49506        2.03171       -0.67018
H          1.74906        1.51901       -3.03654
H          2.79257        0.47529       -2.09446
H         -0.68866        0.54199       -3.58592
H         -1.73850       -1.40890       -4.63350
H          1.72547       -3.79230       -3.65597
H          2.76374       -1.84255       -2.59656
H         -0.03273       -4.82282       -4.74818
H         -1.90475       -4.02778       -2.96608
H         -4.57643       -4.81518       -3.39004
H         -4.04877       -3.22875       -2.73638
H         -5.14802       -3.30554       -4.12676
H         -3.20579       -6.05808       -5.66844
H         -1.48636       -6.58301       -5.63952
H         -2.72427       -7.53627       -4.82033
H         -1.37357       -4.62388       -6.66634
H         -1.78537       -3.11430       -6.31695

--Link1--
%chk=JID_6903.chk
%mem=8GB
%nprocshared=4
# B3LYP/6-311++G(d,p) empiricaldispersion=gd3bj scf=xqc pop=npa geom=check

CID_79493650_JID_6903_Energie_neutraal

0 1

--Link1--
%chk=JID_6903.chk
%mem=8GB
%nprocshared=4
# B3LYP/6-311++G(d,p) empiricaldispersion=gd3bj scf=xqc pop=npa geom=check

CID_79493650_JID_6903_Energie_kation

1 2

--Link1--
%chk=JID_6903.chk
%mem=8GB
%nprocshared=4
# B3LYP/6-311++G(d,p) empiricaldispersion=gd3bj scf=xqc pop=npa geom=check

CID_79493650_JID_6903_Energie_anion

-1 2
