%chk=JID_8362.chk
%mem=8GB
%nprocshared=4
# opt freq B3LYP/6-31G(d) empiricaldispersion=gd3bj scf=xqc

CID_116850080_JID_8362_neutraal

0 1
C          1.07799       -0.06250        0.00339
C          0.53698        0.85187       -1.06266
C          1.07339        2.13737       -1.30115
C          0.55240        2.93931       -2.36062
C         -0.57361        2.48994       -3.10419
C         -1.10112        1.21998       -2.81293
C         -0.55356        0.41439       -1.81853
C         -1.19315        3.31991       -4.23121
C         -0.51476        3.06370       -5.58861
C         -0.67227        1.63306       -6.07069
O         -1.78709        1.12833       -6.23480
N          0.45154        0.89849       -6.36449
N          1.75962        1.35290       -6.14143
C          2.40932        0.56004       -5.09367
C          2.53908        1.31133       -7.37967
N         -2.66187        3.20071       -4.30046
C          1.16685        4.29417       -2.63712
C          2.22602        2.64176       -0.46239
H          0.64459       -1.06602       -0.06931
H          0.84111        0.33183        0.99651
H          2.16181       -0.17635       -0.10142
H         -1.95615        0.83655       -3.36559
H         -0.99803       -0.56143       -1.63555
H         -1.04148        4.37631       -3.98249
H         -0.95861        3.70803       -6.35869
H          0.53774        3.35254       -5.53502
H          0.28467       -0.06126       -6.65427
H          2.50974       -0.49372       -5.37859
H          3.40569        0.95811       -4.87298
H          1.83561        0.60652       -4.16299
H          2.63060        0.29322       -7.77549
H          2.06849        1.93640       -8.14702
H          3.54495        1.71300       -7.21530
H         -3.01917        3.89589       -4.95375
H         -2.88634        2.30404       -4.74454
H          1.09469        4.57676       -3.68971
H          0.67229        5.05728       -2.02847
H          2.23969        4.30439       -2.42192
H          3.16768        2.50699       -1.00356
H          2.09458        3.69971       -0.21262
H          2.30370        2.12555        0.49830

--Link1--
%chk=JID_8362.chk
%mem=8GB
%nprocshared=4
# B3LYP/6-311++G(d,p) empiricaldispersion=gd3bj scf=xqc pop=npa geom=check

CID_116850080_JID_8362_Energie_neutraal

0 1

--Link1--
%chk=JID_8362.chk
%mem=8GB
%nprocshared=4
# B3LYP/6-311++G(d,p) empiricaldispersion=gd3bj scf=xqc pop=npa geom=check

CID_116850080_JID_8362_Energie_kation

1 2

--Link1--
%chk=JID_8362.chk
%mem=8GB
%nprocshared=4
# B3LYP/6-311++G(d,p) empiricaldispersion=gd3bj scf=xqc pop=npa geom=check

CID_116850080_JID_8362_Energie_anion

-1 2
