%chk=JID_5800.chk
%mem=8GB
%nprocshared=4
# opt freq B3LYP/6-31G(d) empiricaldispersion=gd3bj scf=xqc

CID_121623982_JID_5800_neutraal

0 1
C          1.06327       -0.05203       -0.05736
C          0.20113       -0.13992        1.19522
C          0.81653        0.58029        2.39952
C          0.00899        0.53768        3.70031
C          0.39343        1.80618        4.45440
C          1.31641        2.56771        3.51220
N          1.11152        2.00446        2.17557
C         -1.48582        0.26208        3.58004
O         -1.91268       -0.86350        3.86246
N         -2.40375        1.15566        3.14187
C         -2.34091        2.52858        2.66321
C         -2.60330        2.65063        1.15756
O         -3.92683        2.21950        0.83385
C         -3.99604        0.91661        0.25490
C         -3.62929        0.94440       -1.21873
H          1.15269        0.98019       -0.40966
H          0.61484       -0.64136       -0.86366
H          2.06835       -0.44345        0.12903
H         -0.78790        0.25641        0.95662
H          0.06168       -1.19825        1.44821
H          1.78457        0.09623        2.59715
H          0.39234       -0.30745        4.29262
H         -0.47110        2.40387        4.75572
H          0.93234        1.55649        5.37648
H          1.11778        3.64382        3.52639
H          2.36199        2.42263        3.80804
H          0.32313        2.45475        1.71992
H         -3.33524        0.75291        3.14185
H         -3.12309        3.06614        3.21044
H         -1.38658        2.98608        2.90640
H         -2.54181        3.70919        0.88277
H         -1.84673        2.12280        0.57206
H         -3.36926        0.20602        0.80246
H         -5.03349        0.58110        0.35461
H         -2.57975        1.21702       -1.36434
H         -3.79323       -0.03691       -1.67363
H         -4.23038        1.68745       -1.75239

--Link1--
%chk=JID_5800.chk
%mem=8GB
%nprocshared=4
# B3LYP/6-311++G(d,p) empiricaldispersion=gd3bj scf=xqc pop=npa geom=check

CID_121623982_JID_5800_Energie_neutraal

0 1

--Link1--
%chk=JID_5800.chk
%mem=8GB
%nprocshared=4
# B3LYP/6-311++G(d,p) empiricaldispersion=gd3bj scf=xqc pop=npa geom=check

CID_121623982_JID_5800_Energie_kation

1 2

--Link1--
%chk=JID_5800.chk
%mem=8GB
%nprocshared=4
# B3LYP/6-311++G(d,p) empiricaldispersion=gd3bj scf=xqc pop=npa geom=check

CID_121623982_JID_5800_Energie_anion

-1 2
