%chk=JID_4068.chk
%mem=8GB
%nprocshared=4
# opt freq B3LYP/6-31G(d) empiricaldispersion=gd3bj scf=xqc

CID_104826862_JID_4068_neutraal

0 1
C          1.03013        0.09050       -0.03004
C          0.48245        1.46116        0.36916
C          0.94372        2.51540       -0.64149
C         -1.05941        1.47737        0.46933
C         -1.66349        0.49711        1.49317
C         -1.16643        0.73632        2.88688
N         -0.70236       -0.12354        3.76769
C         -0.43708        0.68206        4.84419
N         -0.71789        1.97987        4.66291
O         -1.21531        2.01844        3.35901
C          0.13429        0.15974        6.11084
C          1.52691        0.71879        6.38658
O          1.46575        2.06050        6.86581
N         -3.13594        0.58055        1.42301
H          0.58180       -0.25880       -0.96621
H          0.83458       -0.65827        0.74331
H          2.11571        0.13219       -0.17079
H          0.91108        1.73117        1.34190
H          0.56027        2.29973       -1.64463
H          0.59446        3.51194       -0.35116
H          2.03701        2.54951       -0.69686
H         -1.37997        2.50114        0.70938
H         -1.47679        1.25377       -0.52270
H         -1.39746       -0.52625        1.20658
H         -0.54312        0.40544        6.93699
H          0.19555       -0.93278        6.04461
H          2.01265        0.12569        7.16786
H          2.16545        0.69432        5.49694
H          0.97202        2.58426        6.20516
H         -3.53060       -0.08074        2.09315
H         -3.43506        1.50558        1.73227

--Link1--
%chk=JID_4068.chk
%mem=8GB
%nprocshared=4
# B3LYP/6-311++G(d,p) empiricaldispersion=gd3bj scf=xqc pop=npa geom=check

CID_104826862_JID_4068_Energie_neutraal

0 1

--Link1--
%chk=JID_4068.chk
%mem=8GB
%nprocshared=4
# B3LYP/6-311++G(d,p) empiricaldispersion=gd3bj scf=xqc pop=npa geom=check

CID_104826862_JID_4068_Energie_kation

1 2

--Link1--
%chk=JID_4068.chk
%mem=8GB
%nprocshared=4
# B3LYP/6-311++G(d,p) empiricaldispersion=gd3bj scf=xqc pop=npa geom=check

CID_104826862_JID_4068_Energie_anion

-1 2
