%chk=JID_8177.chk
%mem=8GB
%nprocshared=4
# opt freq B3LYP/6-31G(d) empiricaldispersion=gd3bj scf=xqc

CID_103188154_JID_8177_neutraal

0 1
C          0.93940        0.00327        0.07948
C          0.67233       -1.11016        1.08273
N          1.31946       -1.08992        2.43293
C          0.53506       -2.07250        3.28196
C          0.87569       -3.56081        3.07058
C          0.35637       -1.76542        4.81008
N         -0.65497       -0.73913        5.15601
C         -0.80379       -0.65879        6.61207
C         -0.34348        0.58227        4.61911
C          2.83258       -1.14576        2.44183
C          3.38476       -2.20353        1.43456
C          3.48541        0.22832        1.99988
C          2.86618        1.52250        2.55791
C          3.89680        2.64692        2.78590
C          4.60762        3.05959        1.49678
C          3.20999        3.86194        3.41436
C          3.52913       -1.51913        3.82882
N          3.53354       -0.52074        4.90211
H          0.74447        0.98671        0.51135
H          0.25448       -0.10607       -0.76996
H          1.94568       -0.03284       -0.33684
H         -0.41509       -1.04857        1.22697
H          0.84380       -2.07259        0.58705
H         -0.50824       -2.01569        2.93686
H          1.82660       -3.85456        3.51632
H          0.10454       -4.19058        3.53082
H          0.88808       -3.82711        2.00965
H          0.00611       -2.69849        5.27381
H          1.30230       -1.55844        5.30250
H          0.12289       -0.34163        7.10438
H         -1.59665        0.04834        6.88078
H         -1.10045       -1.62907        7.02578
H          0.62065        0.95613        4.97572
H         -0.35303        0.58759        3.52655
H         -1.11160        1.30497        4.91957
H          3.07259       -2.00948        0.40424
H          4.48217       -2.19014        1.42015
H          3.09034       -3.22244        1.69286
H          4.54764        0.19601        2.28240
H          3.51346        0.31155        0.90945
H          2.10093        1.88811        1.86717
H          2.34609        1.33546        3.49753
H          4.65418        2.28955        3.49495
H          3.89236        3.39433        0.73829
H          5.30730        3.88064        1.68793
H          5.18620        2.23093        1.07717
H          2.72011        3.58930        4.35528
H          3.93811        4.64975        3.63462
H          2.45021        4.27953        2.74494
H          3.11770       -2.44303        4.23551
H          4.58484       -1.75700        3.64086
H          2.60940       -0.09571        4.95497
H          4.16163        0.24157        4.65285

--Link1--
%chk=JID_8177.chk
%mem=8GB
%nprocshared=4
# B3LYP/6-311++G(d,p) empiricaldispersion=gd3bj scf=xqc pop=npa geom=check

CID_103188154_JID_8177_Energie_neutraal

0 1

--Link1--
%chk=JID_8177.chk
%mem=8GB
%nprocshared=4
# B3LYP/6-311++G(d,p) empiricaldispersion=gd3bj scf=xqc pop=npa geom=check

CID_103188154_JID_8177_Energie_kation

1 2

--Link1--
%chk=JID_8177.chk
%mem=8GB
%nprocshared=4
# B3LYP/6-311++G(d,p) empiricaldispersion=gd3bj scf=xqc pop=npa geom=check

CID_103188154_JID_8177_Energie_anion

-1 2
