%chk=JID_7973.chk
%mem=8GB
%nprocshared=4
# opt freq B3LYP/6-31G(d) empiricaldispersion=gd3bj scf=xqc

CID_105749290_JID_7973_neutraal

0 1
C          0.93899       -0.07427        0.02760
C          0.52064        0.24929       -1.39675
C          0.69523       -0.89191       -2.41894
C          2.10709       -1.56273       -2.47863
C          1.41057       -2.92565       -2.64826
C          0.13827       -2.30455       -2.04079
C          0.24407       -0.42522       -3.83211
N         -1.17281       -0.06487       -3.83039
C         -1.49995        1.27884       -4.11200
C         -2.87129        1.63099       -4.04368
C         -3.24556        2.92299       -4.41229
C         -2.26049        3.85690       -4.72305
C         -0.93752        3.44747       -4.68568
N         -0.54226        2.18695       -4.38846
C         -2.59396        5.19954       -5.07370
N         -2.86398        6.29213       -5.35637
N         -3.85973        0.64389       -3.81355
H          0.36075       -0.90111        0.44747
H          0.76916        0.79811        0.66808
H          2.00019       -0.32498        0.09825
H         -0.53170        0.55422       -1.35940
H          1.09131        1.12412       -1.73251
H          2.75062       -1.26258       -3.31156
H          2.70240       -1.50936       -1.56205
H          1.84894       -3.75112       -2.08090
H          1.29776       -3.23975       -3.69175
H          0.04398       -2.50880       -0.96995
H         -0.79733       -2.60438       -2.52229
H          0.90761        0.37791       -4.17319
H          0.37621       -1.23472       -4.56093
H         -1.72582       -0.64197       -4.46190
H         -4.29591        3.19892       -4.44602
H         -0.12371        4.13304       -4.91160
H         -4.70619        1.01946       -3.39677
H         -3.45887       -0.09869       -3.23634

--Link1--
%chk=JID_7973.chk
%mem=8GB
%nprocshared=4
# B3LYP/6-311++G(d,p) empiricaldispersion=gd3bj scf=xqc pop=npa geom=check

CID_105749290_JID_7973_Energie_neutraal

0 1

--Link1--
%chk=JID_7973.chk
%mem=8GB
%nprocshared=4
# B3LYP/6-311++G(d,p) empiricaldispersion=gd3bj scf=xqc pop=npa geom=check

CID_105749290_JID_7973_Energie_kation

1 2

--Link1--
%chk=JID_7973.chk
%mem=8GB
%nprocshared=4
# B3LYP/6-311++G(d,p) empiricaldispersion=gd3bj scf=xqc pop=npa geom=check

CID_105749290_JID_7973_Energie_anion

-1 2
