%chk=JID_2572.chk
%mem=8GB
%nprocshared=4
# opt freq B3LYP/6-31G(d) empiricaldispersion=gd3bj scf=xqc

CID_154119126_JID_2572_neutraal

0 1
C          1.06355       -0.07356        0.02347
C          0.32237        0.25347        1.28664
C         -0.36830       -0.67742        1.97099
C         -1.12223       -0.39553        3.23364
C         -1.13247        1.06425        3.62975
C         -0.45144        2.01372        2.95911
C          0.39099        1.69556        1.74036
O         -0.60800        3.34780        3.31299
C          0.61164        4.07886        3.37806
O         -2.00634        1.38414        4.66129
C         -1.31787        1.40610        5.91019
O         -2.45717       -0.85272        3.03923
H          0.67113        0.51657       -0.81093
H          0.97395       -1.13151       -0.24458
H          2.12848        0.15223        0.13938
H         -0.40628       -1.70493        1.61931
H         -0.68582       -0.98632        4.04641
H          1.44000        1.93396        1.95220
H          0.05819        2.33718        0.91497
H          1.36000        3.54884        3.97707
H          0.99562        4.28526        2.37425
H          0.40433        5.03751        3.86258
H         -0.89251        0.42344        6.14034
H         -0.53361        2.17043        5.91874
H         -2.04346        1.65437        6.69027
H         -3.02921       -0.18719        3.46345

--Link1--
%chk=JID_2572.chk
%mem=8GB
%nprocshared=4
# B3LYP/6-311++G(d,p) empiricaldispersion=gd3bj scf=xqc pop=npa geom=check

CID_154119126_JID_2572_Energie_neutraal

0 1

--Link1--
%chk=JID_2572.chk
%mem=8GB
%nprocshared=4
# B3LYP/6-311++G(d,p) empiricaldispersion=gd3bj scf=xqc pop=npa geom=check

CID_154119126_JID_2572_Energie_kation

1 2

--Link1--
%chk=JID_2572.chk
%mem=8GB
%nprocshared=4
# B3LYP/6-311++G(d,p) empiricaldispersion=gd3bj scf=xqc pop=npa geom=check

CID_154119126_JID_2572_Energie_anion

-1 2
