%chk=JID_5282.chk
%mem=8GB
%nprocshared=4
# opt freq B3LYP/6-31G(d) empiricaldispersion=gd3bj scf=xqc

CID_65937108_JID_5282_neutraal

0 1
C          1.01161        0.06925       -0.07120
C          0.84025       -0.04730       -1.58863
C          1.46625       -1.36527       -2.06025
C         -0.62715        0.05005       -2.02777
C         -1.70654       -0.89297       -1.42178
N         -2.40860        0.26813       -0.84152
C         -1.51825        1.22525       -1.51722
C         -3.82495        0.30099       -1.26236
C         -4.61794        1.36462       -0.48878
C         -4.72922        2.53220       -1.44556
N         -4.74613        1.90869       -2.74307
C         -4.08869        0.67908       -2.72626
O         -3.72636        0.05252       -3.71218
C         -4.91446        2.68463       -3.94882
N         -0.76036        0.00841       -3.50555
H          0.48041       -0.72451        0.46307
H          0.64501        1.02832        0.30486
H          2.07057        0.00078        0.20191
H          1.40280        0.77799       -2.04518
H          0.93004       -2.23026       -1.65548
H          1.45334       -1.44773       -3.15180
H          2.51161       -1.43534       -1.74054
H         -2.27391       -1.50425       -2.13514
H         -1.33854       -1.58544       -0.65614
H         -1.02774        1.90883       -0.81531
H         -1.94701        1.86888       -2.29294
H         -4.28587       -0.67461       -1.06356
H         -5.61997        0.97232       -0.27029
H         -4.17066        1.64864        0.46940
H         -5.64279        3.11272       -1.28916
H         -3.85773        3.19216       -1.38141
H         -5.82042        3.28993       -3.86272
H         -4.04227        3.33210       -4.07591
H         -4.99520        2.02352       -4.81598
H         -1.73314       -0.07220       -3.83363
H         -0.38223        0.82384       -3.98315

--Link1--
%chk=JID_5282.chk
%mem=8GB
%nprocshared=4
# B3LYP/6-311++G(d,p) empiricaldispersion=gd3bj scf=xqc pop=npa geom=check

CID_65937108_JID_5282_Energie_neutraal

0 1

--Link1--
%chk=JID_5282.chk
%mem=8GB
%nprocshared=4
# B3LYP/6-311++G(d,p) empiricaldispersion=gd3bj scf=xqc pop=npa geom=check

CID_65937108_JID_5282_Energie_kation

1 2

--Link1--
%chk=JID_5282.chk
%mem=8GB
%nprocshared=4
# B3LYP/6-311++G(d,p) empiricaldispersion=gd3bj scf=xqc pop=npa geom=check

CID_65937108_JID_5282_Energie_anion

-1 2
