%chk=JID_10645.chk
%mem=8GB
%nprocshared=4
# opt freq B3LYP/6-31G(d) empiricaldispersion=gd3bj scf=xqc

CID_82488189_JID_10645_neutraal

0 1
C          1.04080       -0.03172        0.08561
C          0.58377        1.21091        0.83949
C          0.34747        2.43186       -0.07620
C         -0.84731        2.22377       -1.01348
C          0.16205        3.73538        0.69167
C          0.63514        4.93153        0.13299
C          0.44482        6.15481        0.78544
C         -0.21396        6.22594        2.02224
C         -0.69185        5.02606        2.57280
C         -0.51537        3.80194        1.91525
C         -0.40673        7.51843        2.69987
N         -0.82908        8.53538        1.91485
C         -1.01958        9.73394        2.49897
N         -0.83376        9.97748        3.81062
C         -0.40110        8.94570        4.55507
C         -0.17303        7.68802        4.05085
C         -1.56613       10.84503        1.65707
C         -0.69354       11.17305        0.48704
O         -1.08466       11.38713       -0.65148
O          0.60890       11.35024        0.78508
H          0.26506       -0.40133       -0.59081
H          1.27151       -0.83473        0.79322
H          1.94339        0.17282       -0.49869
H         -0.32816        0.96009        1.39444
H          1.35109        1.45755        1.58451
H          1.24782        2.54406       -0.69641
H         -1.77264        2.05939       -0.45016
H         -1.00256        3.09807       -1.65619
H         -0.69306        1.36387       -1.67210
H          1.14698        4.92500       -0.82730
H          0.81533        7.06573        0.31767
H         -1.23830        5.03298        3.51367
H         -0.93093        2.90784        2.37250
H         -0.23915        9.16684        5.60599
H          0.18310        6.88660        4.68365
H         -2.54948       10.53983        1.28193
H         -1.70285       11.75690        2.24825
H          1.01876       11.58672       -0.07301

--Link1--
%chk=JID_10645.chk
%mem=8GB
%nprocshared=4
# B3LYP/6-311++G(d,p) empiricaldispersion=gd3bj scf=xqc pop=npa geom=check

CID_82488189_JID_10645_Energie_neutraal

0 1

--Link1--
%chk=JID_10645.chk
%mem=8GB
%nprocshared=4
# B3LYP/6-311++G(d,p) empiricaldispersion=gd3bj scf=xqc pop=npa geom=check

CID_82488189_JID_10645_Energie_kation

1 2

--Link1--
%chk=JID_10645.chk
%mem=8GB
%nprocshared=4
# B3LYP/6-311++G(d,p) empiricaldispersion=gd3bj scf=xqc pop=npa geom=check

CID_82488189_JID_10645_Energie_anion

-1 2
