%chk=JID_3840.chk
%mem=8GB
%nprocshared=4
# opt freq B3LYP/6-31G(d) empiricaldispersion=gd3bj scf=xqc

CID_62353573_JID_3840_neutraal

0 1
C          1.07697       -0.01808       -0.06123
C          0.97275       -0.67313        1.31104
C          1.20190        0.22977        2.56522
C          0.20385        1.41651        2.60418
C          0.97982        2.65834        2.17039
N          2.28226        2.18599        1.71830
C          2.54902        0.98487        2.50980
C          1.07286       -0.69057        3.79151
C          2.19784       -1.29386        4.38061
C          2.06649       -2.15135        5.47674
C          0.80734       -2.43605        5.99587
C         -0.32264       -1.87235        5.41240
C         -0.19173       -1.01542        4.31671
H          0.38169        0.81877       -0.16904
H          0.82958       -0.75055       -0.83734
H          2.09274        0.33256       -0.26407
H         -0.02187       -1.13507        1.37875
H          1.68939       -1.50583        1.33291
H         -0.18404        1.60028        3.61368
H         -0.66188        1.24283        1.95502
H          0.46214        3.19996        1.37311
H          1.09907        3.34148        3.01960
H          2.99988        2.89169        1.87442
H          2.88261        1.28971        3.51043
H          3.34724        0.38922        2.05460
H          3.19710       -1.11778        3.99023
H          2.95039       -2.60324        5.91954
H          0.70618       -3.10517        6.84589
H         -1.30961       -2.10429        5.80393
H         -1.09692       -0.61056        3.86910

--Link1--
%chk=JID_3840.chk
%mem=8GB
%nprocshared=4
# B3LYP/6-311++G(d,p) empiricaldispersion=gd3bj scf=xqc pop=npa geom=check

CID_62353573_JID_3840_Energie_neutraal

0 1

--Link1--
%chk=JID_3840.chk
%mem=8GB
%nprocshared=4
# B3LYP/6-311++G(d,p) empiricaldispersion=gd3bj scf=xqc pop=npa geom=check

CID_62353573_JID_3840_Energie_kation

1 2

--Link1--
%chk=JID_3840.chk
%mem=8GB
%nprocshared=4
# B3LYP/6-311++G(d,p) empiricaldispersion=gd3bj scf=xqc pop=npa geom=check

CID_62353573_JID_3840_Energie_anion

-1 2
