%chk=JID_8306.chk
%mem=8GB
%nprocshared=4
# opt freq B3LYP/6-31G(d) empiricaldispersion=gd3bj scf=xqc

CID_106458659_JID_8306_neutraal

0 1
C          0.97488        0.08830       -0.03966
C          0.72387        0.43598        1.42021
C          1.38287       -0.54574        2.38698
O          2.62228       -0.07670        2.90747
C          3.73985       -0.07291        2.02145
C          4.08667       -1.42566        1.35103
N          3.96014       -2.62282        2.19690
C          4.77741       -2.53941        3.42255
C          4.53273       -3.71994        4.40486
N          4.74340       -5.02540        3.74354
C          3.91866       -5.10890        2.52521
C          4.11597       -3.93284        1.50120
C          3.01994       -4.10740        0.42422
C          5.49174       -4.08522        0.81183
C          3.14099       -3.59427        5.07378
C          2.77029       -4.72332        6.05700
C          3.74574       -4.81919        7.23007
C          1.34936       -4.49907        6.58313
H          2.02439        0.21359       -0.31448
H          0.38662        0.74769       -0.68632
H          0.68062       -0.94360       -0.25659
H          1.05411        1.46149        1.61855
H         -0.36095        0.40189        1.57797
H          0.72756       -0.64167        3.26049
H          1.47228       -1.55168        1.96710
H          3.59427        0.69982        1.25919
H          4.59964        0.25696        2.61596
H          3.40774       -1.52194        0.49983
H          5.09706       -1.34183        0.93359
H          5.84320       -2.49929        3.16402
H          4.56078       -1.61573        3.97029
H          5.28891       -3.63590        5.19471
H          5.72204       -5.07884        3.46399
H          2.86266       -5.18099        2.81534
H          4.14878       -6.06381        2.03564
H          3.16502       -3.43922       -0.43101
H          3.02069       -5.12990        0.02792
H          2.02272       -3.91794        0.83817
H          6.32595       -3.97386        1.51103
H          5.58648       -5.07673        0.35313
H          5.62792       -3.35200        0.00962
H          3.10478       -2.63582        5.61013
H          2.36005       -3.52947        4.30527
H          2.77525       -5.68222        5.52492
H          3.82195       -3.86481        7.76191
H          3.41683       -5.57950        7.94675
H          4.74711       -5.10384        6.89366
H          0.62960       -4.46639        5.75820
H          1.04949       -5.31118        7.25384
H          1.27390       -3.55675        7.13657

--Link1--
%chk=JID_8306.chk
%mem=8GB
%nprocshared=4
# B3LYP/6-311++G(d,p) empiricaldispersion=gd3bj scf=xqc pop=npa geom=check

CID_106458659_JID_8306_Energie_neutraal

0 1

--Link1--
%chk=JID_8306.chk
%mem=8GB
%nprocshared=4
# B3LYP/6-311++G(d,p) empiricaldispersion=gd3bj scf=xqc pop=npa geom=check

CID_106458659_JID_8306_Energie_kation

1 2

--Link1--
%chk=JID_8306.chk
%mem=8GB
%nprocshared=4
# B3LYP/6-311++G(d,p) empiricaldispersion=gd3bj scf=xqc pop=npa geom=check

CID_106458659_JID_8306_Energie_anion

-1 2
