%chk=JID_3641.chk
%mem=8GB
%nprocshared=4
# opt freq B3LYP/6-31G(d) empiricaldispersion=gd3bj scf=xqc

CID_107178512_JID_3641_neutraal

0 1
C          0.90680        0.03614       -0.00276
C          1.01328        1.36832        0.73222
N          1.75968        2.35226       -0.04248
C          1.32369        3.74094        0.16881
C          1.47332        4.34409        1.58324
N          2.58564        5.29175        1.67526
C          3.21116        2.16950       -0.15966
C          4.05480        2.03707        1.13657
C          5.51408        2.44010        0.87422
C          6.16394        1.19896        0.28021
C          5.37877        0.00894        0.82876
C          4.21313        0.58798        1.64401
C          4.51421        0.54050        3.14504
H          0.40144        0.16296       -0.96647
H          0.31871       -0.67128        0.59108
H          1.88248       -0.41898       -0.19222
H         -0.01671        1.71673        0.88404
H          1.43132        1.23051        1.73433
H          1.79856        4.39302       -0.57672
H          0.25742        3.78707       -0.09367
H          0.55519        4.89102        1.82708
H          1.57922        3.56757        2.34699
H          2.71293        5.56644        2.64800
H          3.44805        4.83221        1.38870
H          3.60028        3.00563       -0.75554
H          3.38744        1.29168       -0.79386
H          3.64292        2.67936        1.91743
H          5.61474        3.31089        0.21884
H          6.00703        2.69566        1.82005
H          7.22611        1.14031        0.53800
H          6.09304        1.21830       -0.81354
H          6.01813       -0.65188        1.42394
H          4.99424       -0.58750       -0.00730
H          3.31701       -0.01309        1.48126
H          3.69839        0.99745        3.71499
H          4.61572       -0.49698        3.48135
H          5.44109        1.06410        3.39906

--Link1--
%chk=JID_3641.chk
%mem=8GB
%nprocshared=4
# B3LYP/6-311++G(d,p) empiricaldispersion=gd3bj scf=xqc pop=npa geom=check

CID_107178512_JID_3641_Energie_neutraal

0 1

--Link1--
%chk=JID_3641.chk
%mem=8GB
%nprocshared=4
# B3LYP/6-311++G(d,p) empiricaldispersion=gd3bj scf=xqc pop=npa geom=check

CID_107178512_JID_3641_Energie_kation

1 2

--Link1--
%chk=JID_3641.chk
%mem=8GB
%nprocshared=4
# B3LYP/6-311++G(d,p) empiricaldispersion=gd3bj scf=xqc pop=npa geom=check

CID_107178512_JID_3641_Energie_anion

-1 2
