%chk=JID_3122.chk
%mem=8GB
%nprocshared=4
# opt freq B3LYP/6-31G(d) empiricaldispersion=gd3bj scf=xqc

CID_106173254_JID_3122_neutraal

0 1
C          0.19200       -1.26400        0.09800
C         -0.64124       -0.55367        1.16282
C         -0.04117        0.81222        1.19422
C          0.75464        1.03368        0.13994
C          0.81733       -0.16324       -0.75873
C          1.50613        2.29334       -0.16621
C          0.98782        3.02544       -1.41014
N         -0.37873        3.49585       -1.24928
C         -0.80560        4.66223       -0.68145
O         -2.00526        4.81471       -0.45964
C          0.23088        5.73080       -0.39527
C         -0.34718        6.94765        0.31803
S         -0.72687        6.60215        2.06499
H         -0.40707       -1.96018       -0.49791
H          0.98444       -1.85146        0.58020
H         -1.69715       -0.49825        0.87905
H         -0.55847       -1.05799        2.12985
H         -0.26093        1.53562        1.96872
H          1.84417       -0.42103       -1.03513
H          0.23412        0.00824       -1.66951
H          1.46397        2.96672        0.69874
H          2.56370        2.04297       -0.31257
H          1.63866        3.87621       -1.63354
H          0.99749        2.36542       -2.28418
H         -1.11972        2.81048       -1.34768
H          1.05746        5.30759        0.18479
H          0.62991        6.05651       -1.36360
H          0.38724        7.75932        0.30000
H         -1.25546        7.30950       -0.17437
H         -1.74930        5.76405        1.81797

--Link1--
%chk=JID_3122.chk
%mem=8GB
%nprocshared=4
# B3LYP/6-311++G(d,p) empiricaldispersion=gd3bj scf=xqc pop=npa geom=check

CID_106173254_JID_3122_Energie_neutraal

0 1

--Link1--
%chk=JID_3122.chk
%mem=8GB
%nprocshared=4
# B3LYP/6-311++G(d,p) empiricaldispersion=gd3bj scf=xqc pop=npa geom=check

CID_106173254_JID_3122_Energie_kation

1 2

--Link1--
%chk=JID_3122.chk
%mem=8GB
%nprocshared=4
# B3LYP/6-311++G(d,p) empiricaldispersion=gd3bj scf=xqc pop=npa geom=check

CID_106173254_JID_3122_Energie_anion

-1 2
