%chk=JID_7679.chk
%mem=8GB
%nprocshared=4
# opt freq B3LYP/6-31G(d) empiricaldispersion=gd3bj scf=xqc

CID_150355923_JID_7679_neutraal

0 1
C          1.02925       -0.07353       -0.06114
O          0.45448        1.16821        0.31801
C          1.05884        1.68835        1.49710
O          0.71355        0.98023        2.67604
C         -0.69815        0.83315        2.90466
C         -1.55315        2.14441        3.14994
N         -1.70571        2.84607        1.90317
C         -1.60666        4.20093        1.78988
C         -1.13351        4.95725        2.80085
C         -0.74596        4.16688        4.00147
N         -0.91158        2.90667        4.21670
N         -0.96378        6.32300        2.79489
C         -1.29689        6.91488        1.68595
C         -1.83589        6.18760        0.46919
O         -2.11720        6.80941       -0.54155
N         -1.95885        4.83070        0.62881
N         -2.82543        1.73242        3.71002
H          0.51728       -0.42729       -0.96019
H          0.90100       -0.82185        0.72667
H          2.09137        0.04961       -0.29426
H          2.15027        1.65891        1.39516
H          0.80546        2.74484        1.59892
H         -1.13367        0.24029        2.08984
H         -0.76108        0.20496        3.80292
H         -2.24815        2.35049        1.20869
H         -0.26524        4.76226        4.79621
H         -1.20046        8.00546        1.56979
H         -2.28452        4.29282       -0.16094
H         -2.60176        1.38387        4.64144
H         -3.32980        2.59686        3.88460

--Link1--
%chk=JID_7679.chk
%mem=8GB
%nprocshared=4
# B3LYP/6-311++G(d,p) empiricaldispersion=gd3bj scf=xqc pop=npa geom=check

CID_150355923_JID_7679_Energie_neutraal

0 1

--Link1--
%chk=JID_7679.chk
%mem=8GB
%nprocshared=4
# B3LYP/6-311++G(d,p) empiricaldispersion=gd3bj scf=xqc pop=npa geom=check

CID_150355923_JID_7679_Energie_kation

1 2

--Link1--
%chk=JID_7679.chk
%mem=8GB
%nprocshared=4
# B3LYP/6-311++G(d,p) empiricaldispersion=gd3bj scf=xqc pop=npa geom=check

CID_150355923_JID_7679_Energie_anion

-1 2
