%chk=JID_6746.chk
%mem=8GB
%nprocshared=4
# opt freq B3LYP/6-31G(d) empiricaldispersion=gd3bj scf=xqc

CID_153853098_JID_6746_neutraal

0 1
C          1.02812       -0.06512        0.07049
O          1.54040        0.02310        1.38912
C          0.60684       -0.26091        2.43263
C         -0.11253       -1.61284        2.28393
C          0.80820       -2.81383        2.17290
O          2.03387       -2.71294        2.20233
N          0.18908       -4.05736        1.97961
C          1.05112       -5.21334        2.01784
N          0.44097       -6.25787        1.22249
C         -0.87872       -6.56311        1.70284
N         -1.68352       -5.38290        1.52695
C         -1.18475       -4.30267        2.34703
O          1.18334       -0.26257        3.74928
C          2.54881        0.12129        3.79265
O         -0.46331        0.70950        2.40590
C         -0.03683        2.02987        2.70503
H          1.78523        0.33144       -0.61206
H          0.11763        0.52864       -0.05027
H          0.84330       -1.10559       -0.20928
H         -0.75293       -1.75772        3.16367
H         -0.75987       -1.59706        1.39888
H          2.03876       -4.98431        1.60420
H          1.19705       -5.52089        3.06075
H          0.38623       -5.93027        0.26429
H         -0.87439       -6.91457        2.74216
H         -1.30041       -7.37855        1.10578
H         -1.63176       -5.09559        0.55534
H         -1.23503       -4.53416        3.41804
H         -1.81201       -3.42542        2.17645
H          3.17543       -0.58267        3.23822
H          2.68450        1.13727        3.41012
H          2.87016        0.10781        4.83795
H          0.28934        2.10851        3.74589
H          0.75960        2.35630        2.03024
H         -0.89145        2.69898        2.57034

--Link1--
%chk=JID_6746.chk
%mem=8GB
%nprocshared=4
# B3LYP/6-311++G(d,p) empiricaldispersion=gd3bj scf=xqc pop=npa geom=check

CID_153853098_JID_6746_Energie_neutraal

0 1

--Link1--
%chk=JID_6746.chk
%mem=8GB
%nprocshared=4
# B3LYP/6-311++G(d,p) empiricaldispersion=gd3bj scf=xqc pop=npa geom=check

CID_153853098_JID_6746_Energie_kation

1 2

--Link1--
%chk=JID_6746.chk
%mem=8GB
%nprocshared=4
# B3LYP/6-311++G(d,p) empiricaldispersion=gd3bj scf=xqc pop=npa geom=check

CID_153853098_JID_6746_Energie_anion

-1 2
