%chk=JID_9857.chk
%mem=8GB
%nprocshared=4
# opt freq B3LYP/6-31G(d) empiricaldispersion=gd3bj scf=xqc

CID_106628381_JID_9857_neutraal

0 1
C          1.00333       -0.09992        0.00224
C          1.37801        1.37165        0.09773
C          2.14159        1.88383       -1.12738
N          1.32774        1.90005       -2.34563
C          0.38565        3.02202       -2.48976
C          0.75837        4.00138       -3.62481
C          2.06970        4.76128       -3.36088
C          1.90682        5.83247       -2.28447
C          0.71086        6.73663       -2.57468
N         -0.51805        5.96292       -2.75855
C         -0.38085        5.00679       -3.86060
C          1.48968        0.84110       -3.25703
O          2.37046       -0.01134       -3.09882
C          0.62531        0.69531       -4.47917
C          1.13839       -0.00671       -5.56878
C          0.33924       -0.17793       -6.69615
C         -0.94828        0.34349       -6.70046
C         -1.38562        1.01757       -5.57268
N         -0.63221        1.20621       -4.46747
H          0.29404       -0.27906       -0.81133
H          0.53088       -0.42847        0.93350
H          1.88872       -0.72121       -0.16525
H          0.46901        1.96257        0.25695
H          2.00868        1.51285        0.98345
H          2.49052        2.90564       -0.94017
H          3.04131        1.27651       -1.27527
H         -0.61721        2.61146       -2.63270
H          0.33372        3.55438       -1.53301
H          0.89752        3.43682       -4.55322
H          2.87924        4.07463       -3.09211
H          2.38155        5.25135       -4.29285
H          1.78435        5.36101       -1.30230
H          2.81928        6.43729       -2.22956
H          0.57235        7.42813       -1.73643
H          0.90628        7.34821       -3.46413
H         -1.28630        6.60198       -2.96399
H         -0.20804        5.55019       -4.79847
H         -1.32913        4.47104       -3.98413
H          2.14342       -0.41700       -5.53891
H          0.71796       -0.72083       -7.55767
H         -1.59858        0.22129       -7.55974
H         -2.38771        1.43527       -5.52596

--Link1--
%chk=JID_9857.chk
%mem=8GB
%nprocshared=4
# B3LYP/6-311++G(d,p) empiricaldispersion=gd3bj scf=xqc pop=npa geom=check

CID_106628381_JID_9857_Energie_neutraal

0 1

--Link1--
%chk=JID_9857.chk
%mem=8GB
%nprocshared=4
# B3LYP/6-311++G(d,p) empiricaldispersion=gd3bj scf=xqc pop=npa geom=check

CID_106628381_JID_9857_Energie_kation

1 2

--Link1--
%chk=JID_9857.chk
%mem=8GB
%nprocshared=4
# B3LYP/6-311++G(d,p) empiricaldispersion=gd3bj scf=xqc pop=npa geom=check

CID_106628381_JID_9857_Energie_anion

-1 2
