%chk=JID_7739.chk
%mem=8GB
%nprocshared=4
# opt freq B3LYP/6-31G(d) empiricaldispersion=gd3bj scf=xqc

CID_103821996_JID_7739_neutraal

0 1
C          1.06966        0.03947       -0.05992
C          0.39826       -1.34648       -0.27059
C          1.39232       -2.43846        0.18544
C          1.53825       -2.50056        1.70703
C          0.18027       -2.53362        2.40324
N         -0.64047       -1.38716        2.01905
C         -0.89717       -1.38059        0.56945
C          0.07213       -1.47657       -1.77491
O          0.36485       -0.58167       -2.57755
N         -0.54402       -2.55521       -2.32868
C         -0.82296       -3.89308       -1.82141
C         -2.02753       -4.59882       -2.49771
C         -1.87835       -4.59077       -4.02894
C         -2.06411       -6.05854       -2.00577
C         -3.33857       -3.92736       -2.06442
O         -3.42493       -3.10771       -1.15553
N         -4.47749       -4.34652       -2.68775
H          1.31423        0.23431        0.98892
H          0.41266        0.85136       -0.39479
H          2.00098        0.11784       -0.63353
H          1.08365       -3.42903       -0.15449
H          2.37673       -2.27306       -0.27092
H          2.11719       -1.63983        2.06274
H          2.11328       -3.39290        1.98101
H          0.33431       -2.51145        3.48759
H         -0.34290       -3.46986        2.17320
H         -1.53560       -1.43184        2.50718
H         -1.51111       -0.50226        0.33320
H         -1.52329       -2.24100        0.33237
H         -0.58319       -2.42688       -3.33311
H          0.09039       -4.47054       -2.01215
H         -0.95572       -3.87060       -0.73919
H         -0.87072       -4.89986       -4.32888
H         -2.58212       -5.27970       -4.50946
H         -2.07221       -3.59738       -4.44800
H         -2.19765       -6.10381       -0.91849
H         -2.89180       -6.61824       -2.45595
H         -1.13526       -6.58412       -2.25399
H         -4.49746       -4.99449       -3.46127
H         -5.34485       -3.90437       -2.40961

--Link1--
%chk=JID_7739.chk
%mem=8GB
%nprocshared=4
# B3LYP/6-311++G(d,p) empiricaldispersion=gd3bj scf=xqc pop=npa geom=check

CID_103821996_JID_7739_Energie_neutraal

0 1

--Link1--
%chk=JID_7739.chk
%mem=8GB
%nprocshared=4
# B3LYP/6-311++G(d,p) empiricaldispersion=gd3bj scf=xqc pop=npa geom=check

CID_103821996_JID_7739_Energie_kation

1 2

--Link1--
%chk=JID_7739.chk
%mem=8GB
%nprocshared=4
# B3LYP/6-311++G(d,p) empiricaldispersion=gd3bj scf=xqc pop=npa geom=check

CID_103821996_JID_7739_Energie_anion

-1 2
