%chk=JID_2916.chk
%mem=8GB
%nprocshared=4
# opt freq B3LYP/6-31G(d) empiricaldispersion=gd3bj scf=xqc

CID_146675370_JID_2916_neutraal

0 1
C          0.93364        0.06991        0.02662
N          0.30733       -1.21093       -0.27302
C         -1.11636       -1.19480        0.04755
C          0.57944       -1.70207       -1.63804
C          0.14386       -0.79258       -2.81117
C          1.24847        0.13549       -3.33058
C          1.89076       -0.54173       -4.55247
C          3.23651       -1.20535       -4.28131
N          2.89051       -2.55706       -3.85514
C          1.79052       -2.96764       -4.72158
C          0.96675       -1.70063       -4.94814
C         -0.27064       -1.56940       -4.06415
H          0.81681        0.31195        1.08912
H          0.50630        0.89433       -0.55399
H          2.01163        0.02801       -0.16308
H         -1.67304       -0.44298       -0.52091
H         -1.56871       -2.17486       -0.14042
H         -1.26282       -0.98597        1.11340
H          1.65359       -1.90319       -1.69310
H          0.10172       -2.68530       -1.73475
H         -0.71479       -0.19008       -2.49476
H          0.78038        1.06991       -3.66768
H          1.98267        0.41400       -2.56976
H          1.99505        0.18875       -5.36319
H          3.82839       -0.68210       -3.52499
H          3.82704       -1.25000       -5.20473
H          3.68591       -3.18587       -3.95138
H          1.21347       -3.78294       -4.27564
H          2.19273       -3.32396       -5.67781
H          0.67782       -1.64263       -6.00421
H         -0.74696       -2.52985       -3.84388
H         -1.01432       -0.97005       -4.60690

--Link1--
%chk=JID_2916.chk
%mem=8GB
%nprocshared=4
# B3LYP/6-311++G(d,p) empiricaldispersion=gd3bj scf=xqc pop=npa geom=check

CID_146675370_JID_2916_Energie_neutraal

0 1

--Link1--
%chk=JID_2916.chk
%mem=8GB
%nprocshared=4
# B3LYP/6-311++G(d,p) empiricaldispersion=gd3bj scf=xqc pop=npa geom=check

CID_146675370_JID_2916_Energie_kation

1 2

--Link1--
%chk=JID_2916.chk
%mem=8GB
%nprocshared=4
# B3LYP/6-311++G(d,p) empiricaldispersion=gd3bj scf=xqc pop=npa geom=check

CID_146675370_JID_2916_Energie_anion

-1 2
