%chk=JID_8939.chk
%mem=8GB
%nprocshared=4
# opt freq B3LYP/6-31G(d) empiricaldispersion=gd3bj scf=xqc

CID_55237310_JID_8939_neutraal

0 1
C          1.07345        0.02544        0.06292
C          0.47089       -1.34299       -0.21700
N          1.13189       -2.34538        0.61587
C          0.54511       -3.68609        0.46875
C          1.02433       -4.35816       -0.82481
C          0.94114       -4.56243        1.67172
C          0.51233       -4.03883        3.04952
N         -0.93413       -4.04288        3.28119
C         -1.67155       -2.81547        2.96934
C         -2.97592       -2.75179        3.76193
N         -3.84100       -3.89056        3.42202
C         -3.15076       -5.13275        3.49742
C         -3.87210       -6.34279        3.58937
C         -3.23372       -7.57814        3.69584
C         -1.85109       -7.63612        3.70834
C         -1.10733       -6.46179        3.58350
C         -1.71420       -5.19770        3.43797
C         -5.20181       -3.81343        3.94018
H          0.95148        0.30411        1.11521
H          0.57737        0.78748       -0.54679
H          2.14210        0.04572       -0.17639
H         -0.60090       -1.30660        0.00810
H          0.58920       -1.57124       -1.28111
H          2.12726       -2.37526        0.39538
H         -0.54702       -3.62574        0.43005
H          2.11687       -4.43708       -0.85584
H          0.61409       -5.37080       -0.90690
H          0.69892       -3.80491       -1.71130
H          0.54232       -5.57102        1.51433
H          2.03450       -4.67226        1.68541
H          1.00336       -4.63664        3.82746
H          0.90841       -3.02725        3.20127
H         -1.89629       -2.77292        1.89823
H         -1.06711       -1.93488        3.21570
H         -2.77353       -2.74217        4.84133
H         -3.48868       -1.81438        3.51548
H         -4.95666       -6.34763        3.58170
H         -3.82114       -8.48823        3.77532
H         -1.34384       -8.59156        3.80646
H         -0.02722       -6.56040        3.59905
H         -5.89332       -4.40554        3.33201
H         -5.25264       -4.14248        4.98407
H         -5.57020       -2.78192        3.89899

--Link1--
%chk=JID_8939.chk
%mem=8GB
%nprocshared=4
# B3LYP/6-311++G(d,p) empiricaldispersion=gd3bj scf=xqc pop=npa geom=check

CID_55237310_JID_8939_Energie_neutraal

0 1

--Link1--
%chk=JID_8939.chk
%mem=8GB
%nprocshared=4
# B3LYP/6-311++G(d,p) empiricaldispersion=gd3bj scf=xqc pop=npa geom=check

CID_55237310_JID_8939_Energie_kation

1 2

--Link1--
%chk=JID_8939.chk
%mem=8GB
%nprocshared=4
# B3LYP/6-311++G(d,p) empiricaldispersion=gd3bj scf=xqc pop=npa geom=check

CID_55237310_JID_8939_Energie_anion

-1 2
