%chk=JID_6176.chk
%mem=8GB
%nprocshared=4
# opt freq B3LYP/6-31G(d) empiricaldispersion=gd3bj scf=xqc

CID_66888743_JID_6176_neutraal

0 1
C          0.00000        0.00000        1.31300
C         -0.37583       -0.64895       -0.01882
C         -1.63668        0.17688       -0.37794
N         -1.34734        1.53943        0.16594
C          0.04300        1.39005        0.69502
C          1.06783        1.15817       -0.46057
N          0.70644       -0.20321       -0.93547
C          1.73501       -1.11480       -1.14776
N          3.01547       -0.80451       -0.81222
C          3.99591       -1.69906       -1.04767
N          3.89387       -2.92056       -1.59466
C          2.62650       -3.18697       -1.93739
C          1.52070       -2.36891       -1.76237
C          0.41077       -3.07355       -2.31784
C          0.86733       -4.28961       -2.78181
N          2.21647       -4.34331       -2.54280
H          0.97084       -0.32940        1.69850
H         -0.76351       -0.11872        2.08959
H         -0.55621       -1.72569        0.02482
H         -2.52510       -0.23033        0.11680
H         -1.81420        0.22274       -1.45712
H         -1.97700        1.71449        0.94869
H          0.32152        2.20285        1.36917
H          0.94839        1.89143       -1.26492
H          2.08258        1.23430       -0.05496
H          4.99533       -1.39065       -0.75642
H         -0.60875       -2.71647       -2.37687
H          0.35596       -5.10909       -3.26907
H          2.83940       -5.10050       -2.78315

--Link1--
%chk=JID_6176.chk
%mem=8GB
%nprocshared=4
# B3LYP/6-311++G(d,p) empiricaldispersion=gd3bj scf=xqc pop=npa geom=check

CID_66888743_JID_6176_Energie_neutraal

0 1

--Link1--
%chk=JID_6176.chk
%mem=8GB
%nprocshared=4
# B3LYP/6-311++G(d,p) empiricaldispersion=gd3bj scf=xqc pop=npa geom=check

CID_66888743_JID_6176_Energie_kation

1 2

--Link1--
%chk=JID_6176.chk
%mem=8GB
%nprocshared=4
# B3LYP/6-311++G(d,p) empiricaldispersion=gd3bj scf=xqc pop=npa geom=check

CID_66888743_JID_6176_Energie_anion

-1 2
