%chk=JID_5745.chk
%mem=8GB
%nprocshared=4
# opt freq B3LYP/6-31G(d) empiricaldispersion=gd3bj scf=xqc

CID_144361757_JID_5745_neutraal

0 1
C          1.07025       -0.06792       -0.02125
C          0.44796       -1.39560       -0.38879
C         -2.32338        1.84043        2.02151
C         -1.16873        1.86571        3.02982
O         -1.33989        0.87264        4.04902
C         -1.37349       -0.43704        3.46246
C         -2.54762       -0.57192        2.49155
N         -2.54584        0.49238        1.48462
C         -2.96981        0.18602        0.20535
O         -3.09255       -0.96742       -0.20355
C         -3.24331        1.28463       -0.72526
C         -4.07606        2.31586       -0.59066
N         -4.12067        3.09185       -1.72082
N         -3.15141        2.62352       -2.65936
C         -2.65619        1.33034       -2.08782
H          0.29886        0.69720        0.10439
H          1.75776        0.26412       -0.80480
H          1.62894       -0.15103        0.91568
H         -0.22393       -1.73832        0.40330
H         -0.12743       -1.30690       -1.31511
H          1.22166       -2.15515       -0.53483
H         -3.25609        2.13441        2.51663
H         -2.10990        2.55462        1.22287
H         -0.20772        1.69901        2.52894
H         -1.12287        2.84402        3.51854
H         -1.47346       -1.16437        4.27406
H         -0.41901       -0.62722        2.95755
H         -3.49239       -0.46991        3.03908
H         -2.53603       -1.56196        2.02553
H         -4.68640        2.57782        0.26196
H         -4.16347        4.10019       -1.55292
H         -3.61515        2.41459       -3.54794
H         -2.99955        0.48973       -2.70025
H         -1.56244        1.34104       -2.06106

--Link1--
%chk=JID_5745.chk
%mem=8GB
%nprocshared=4
# B3LYP/6-311++G(d,p) empiricaldispersion=gd3bj scf=xqc pop=npa geom=check

CID_144361757_JID_5745_Energie_neutraal

0 1

--Link1--
%chk=JID_5745.chk
%mem=8GB
%nprocshared=4
# B3LYP/6-311++G(d,p) empiricaldispersion=gd3bj scf=xqc pop=npa geom=check

CID_144361757_JID_5745_Energie_kation

1 2

--Link1--
%chk=JID_5745.chk
%mem=8GB
%nprocshared=4
# B3LYP/6-311++G(d,p) empiricaldispersion=gd3bj scf=xqc pop=npa geom=check

CID_144361757_JID_5745_Energie_anion

-1 2
