%chk=JID_8315.chk
%mem=8GB
%nprocshared=4
# opt freq B3LYP/6-31G(d) empiricaldispersion=gd3bj scf=xqc

CID_115738041_JID_8315_neutraal

0 1
C         -0.02900        0.88300        0.00000
C         -0.40204       -0.31292        0.81800
C          0.62896       -0.43868       -0.28945
C          0.33544       -1.42158       -1.36166
O          0.44905       -2.61751       -1.10782
N          0.01306       -1.04309       -2.63087
C         -0.27179        0.26269       -3.19907
C          0.96802        1.14038       -3.38868
N          1.90473        0.58944       -4.35321
C          1.87907        0.62960       -5.72646
O          2.79193        0.06352       -6.33036
C          0.79239        1.31562       -6.44551
C          0.78180        1.42086       -7.82759
S         -0.61807        2.23875       -8.36912
C         -1.13638        2.40413       -6.74110
N         -0.32592        1.89078       -5.83453
C         -2.43717        3.08938       -6.42092
N         -2.21658        4.40989       -5.82649
H          0.57287        1.64761        0.48118
H         -0.81080        1.28964       -0.62300
H         -0.05715       -0.37418        1.84272
H         -1.38309       -0.74927        0.65569
H          1.65896       -0.52909        0.04981
H         -0.09242       -1.84092       -3.24659
H         -0.75673        0.06118       -4.15894
H         -1.01255        0.76314       -2.57539
H          0.68619        2.15121       -3.69493
H          1.52007        1.23605       -2.44855
H          2.66463        0.02488       -3.99553
H          1.52343        1.05428       -8.52443
H         -3.06325        3.19727       -7.31308
H         -2.99199        2.46585       -5.71022
H         -3.10004        4.76473       -5.46677
H         -1.59914        4.29772       -5.02211

--Link1--
%chk=JID_8315.chk
%mem=8GB
%nprocshared=4
# B3LYP/6-311++G(d,p) empiricaldispersion=gd3bj scf=xqc pop=npa geom=check

CID_115738041_JID_8315_Energie_neutraal

0 1

--Link1--
%chk=JID_8315.chk
%mem=8GB
%nprocshared=4
# B3LYP/6-311++G(d,p) empiricaldispersion=gd3bj scf=xqc pop=npa geom=check

CID_115738041_JID_8315_Energie_kation

1 2

--Link1--
%chk=JID_8315.chk
%mem=8GB
%nprocshared=4
# B3LYP/6-311++G(d,p) empiricaldispersion=gd3bj scf=xqc pop=npa geom=check

CID_115738041_JID_8315_Energie_anion

-1 2
