%chk=JID_9971.chk
%mem=8GB
%nprocshared=4
# opt freq B3LYP/6-31G(d) empiricaldispersion=gd3bj scf=xqc

CID_78334857_JID_9971_neutraal

0 1
C          2.49200        0.00400       -0.01400
C          1.00559       -0.06271       -0.22060
C          0.31031       -1.25819        0.01748
C         -1.06696       -1.33500       -0.19764
C         -1.76550       -0.18291       -0.56826
C         -1.08150        1.00726       -0.81437
C          0.30202        1.06154       -0.66200
N         -1.81703       -2.50824       -0.03785
C         -1.49548       -3.83076       -0.13677
O         -2.31353       -4.65442        0.27818
C         -0.21863       -4.32269       -0.78639
N          0.05825       -3.65383       -2.07196
N          1.27723       -3.13086       -2.28055
C          1.43297       -2.65765       -3.56661
O          2.50057       -2.70874       -4.16172
C          0.29754       -1.98645       -4.24558
C         -0.94969       -2.41955       -4.06282
C         -1.13031       -3.46824       -3.07017
O         -2.11879       -4.15222       -2.91194
H          2.77643       -0.52076        0.90399
H          3.00668       -0.45557       -0.86351
H          2.83444        1.03958        0.08244
H          0.86543       -2.08706        0.44566
H         -2.84726       -0.19348       -0.69175
H         -1.62862        1.90032       -1.11216
H          0.82043        2.00198       -0.84714
H         -2.79485       -2.37934        0.22684
H          0.62849       -4.19406       -0.10713
H         -0.31612       -5.39072       -1.00873
H          0.55168       -1.23669       -4.98881
H         -1.80869       -2.05227       -4.60912

--Link1--
%chk=JID_9971.chk
%mem=8GB
%nprocshared=4
# B3LYP/6-311++G(d,p) empiricaldispersion=gd3bj scf=xqc pop=npa geom=check

CID_78334857_JID_9971_Energie_neutraal

0 1

--Link1--
%chk=JID_9971.chk
%mem=8GB
%nprocshared=4
# B3LYP/6-311++G(d,p) empiricaldispersion=gd3bj scf=xqc pop=npa geom=check

CID_78334857_JID_9971_Energie_kation

1 2

--Link1--
%chk=JID_9971.chk
%mem=8GB
%nprocshared=4
# B3LYP/6-311++G(d,p) empiricaldispersion=gd3bj scf=xqc pop=npa geom=check

CID_78334857_JID_9971_Energie_anion

-1 2
