%chk=JID_9479.chk
%mem=8GB
%nprocshared=4
# opt freq B3LYP/6-31G(d) empiricaldispersion=gd3bj scf=xqc

CID_117223121_JID_9479_neutraal

0 1
C          0.95612        0.08969       -0.00555
C          0.05654        0.22581        1.21080
N          0.52038        1.24184        2.14913
C          0.19562        2.58965        2.04707
C          0.72033        3.22454        3.15420
C          1.38370        2.25520        3.92902
C          1.29556        1.02755        3.28386
C          1.91210       -0.19370        3.77287
O          2.36394       -0.34054        4.90236
O          1.97493       -1.14572        2.80215
C          2.60428       -2.35838        3.21760
C         -0.54242        3.18748        0.93775
C         -1.93171        3.07126        0.85605
C         -2.61722        3.62008       -0.23057
C         -1.92861        4.29904       -1.23925
C         -0.54394        4.43965       -1.14450
C          0.14482        3.88801       -0.05856
O         -2.71758        4.77385       -2.25033
C         -2.05615        5.42267       -3.32915
H          0.98697        1.01516       -0.58811
H          0.58754       -0.70661       -0.65965
H          1.98410       -0.15326        0.28121
H         -0.95922        0.48639        0.89849
H         -0.04746       -0.72329        1.74300
H          0.63373        4.28146        3.37322
H          1.90980        2.42502        4.86149
H          3.64933       -2.17541        3.48659
H          2.06000       -2.80824        4.05408
H          2.58105       -3.05669        2.37643
H         -2.48686        2.54918        1.63129
H         -3.69762        3.51571       -0.29286
H          0.03199        4.96956       -1.89534
H          1.22536        3.99939        0.00115
H         -1.55776        6.33736       -2.99184
H         -1.35098        4.74744       -3.82545
H         -2.81532        5.70806       -4.06366

--Link1--
%chk=JID_9479.chk
%mem=8GB
%nprocshared=4
# B3LYP/6-311++G(d,p) empiricaldispersion=gd3bj scf=xqc pop=npa geom=check

CID_117223121_JID_9479_Energie_neutraal

0 1

--Link1--
%chk=JID_9479.chk
%mem=8GB
%nprocshared=4
# B3LYP/6-311++G(d,p) empiricaldispersion=gd3bj scf=xqc pop=npa geom=check

CID_117223121_JID_9479_Energie_kation

1 2

--Link1--
%chk=JID_9479.chk
%mem=8GB
%nprocshared=4
# B3LYP/6-311++G(d,p) empiricaldispersion=gd3bj scf=xqc pop=npa geom=check

CID_117223121_JID_9479_Energie_anion

-1 2
