%chk=JID_9544.chk
%mem=8GB
%nprocshared=4
# opt freq B3LYP/6-31G(d) empiricaldispersion=gd3bj scf=xqc

CID_10515004_JID_9544_neutraal

0 1
C          1.09164       -0.02443        0.03169
C          1.33519        1.44971        0.09747
C          0.90099        2.31322       -0.82920
C          1.08030        3.74622       -0.85343
C          0.44223        4.52641       -1.97500
C         -1.07361        4.73184       -1.81536
C         -1.25589        6.18698       -1.40555
C         -0.09803        6.89392       -2.09254
C          1.07567        5.92700       -1.93316
C          1.75655        6.01413       -0.59192
C          1.87806        4.64868        0.07229
C          1.25777        4.66788        1.47766
C          3.35748        4.22748        0.13265
C          2.56055        7.18601       -0.22935
C          2.37216        7.82528        1.00037
C          3.12878        8.94895        1.34400
C          4.07927        9.44868        0.45741
C          4.26913        8.82845       -0.77469
C          3.51049        7.70619       -1.11751
H          0.52349       -0.31368       -0.85801
H          0.53156       -0.34842        0.91421
H          2.04663       -0.55848        0.01483
H          1.89399        1.78291        0.96445
H          0.33506        1.91204       -1.67097
H          0.65216        4.04432       -2.93816
H         -1.54130        4.04900       -1.09866
H         -1.55950        4.56798       -2.78549
H         -2.22676        6.58421       -1.71567
H         -1.17967        6.28989       -0.31716
H         -0.32622        7.02288       -3.15788
H          0.08639        7.88547       -1.66800
H          1.80114        6.04677       -2.74513
H          1.17436        3.66655        1.90980
H          1.86634        5.25038        2.17741
H          0.25012        5.10029        1.46940
H          3.80358        4.18051       -0.86845
H          3.95229        4.93213        0.72581
H          3.49249        3.24696        0.59733
H          1.61637        7.47462        1.69735
H          2.96913        9.43656        2.30206
H          4.66765       10.32237        0.72446
H          5.00884        9.21545       -1.47045
H          3.68615        7.23294       -2.08005

--Link1--
%chk=JID_9544.chk
%mem=8GB
%nprocshared=4
# B3LYP/6-311++G(d,p) empiricaldispersion=gd3bj scf=xqc pop=npa geom=check

CID_10515004_JID_9544_Energie_neutraal

0 1

--Link1--
%chk=JID_9544.chk
%mem=8GB
%nprocshared=4
# B3LYP/6-311++G(d,p) empiricaldispersion=gd3bj scf=xqc pop=npa geom=check

CID_10515004_JID_9544_Energie_kation

1 2

--Link1--
%chk=JID_9544.chk
%mem=8GB
%nprocshared=4
# B3LYP/6-311++G(d,p) empiricaldispersion=gd3bj scf=xqc pop=npa geom=check

CID_10515004_JID_9544_Energie_anion

-1 2
