%chk=JID_4466.chk
%mem=8GB
%nprocshared=4
# opt freq B3LYP/6-31G(d) empiricaldispersion=gd3bj scf=xqc

CID_63585730_JID_4466_neutraal

0 1
C          0.94299        0.06720       -0.04727
C          0.88987        1.13997       -1.14496
C          1.63460        0.75202       -2.43450
C          1.54820       -0.71587       -2.81946
O          0.57500       -1.18191       -3.41902
N          2.57806       -1.56148       -2.46816
N          3.73865       -1.14994       -1.80325
N         -0.49109        1.62829       -1.27335
C         -0.65825        3.05812       -1.51770
C         -0.96160        3.43020       -2.96627
C         -2.16514        2.65065       -3.48684
C         -1.92183        1.15188       -3.35131
C         -1.49736        0.77517       -1.91050
O         -0.95702        0.77756       -4.33194
H          0.42694       -0.85472       -0.33266
H          0.47651        0.43427        0.87480
H          1.97931       -0.18176        0.20169
H          1.47100        1.97139       -0.72108
H          1.29851        1.35103       -3.28643
H          2.68875        1.03304       -2.32405
H          2.45464       -2.53059       -2.75897
H          3.86627       -1.73004       -0.96986
H          4.54634       -1.33257       -2.40472
H         -1.49614        3.39958       -0.89530
H          0.20585        3.63523       -1.16770
H         -0.08514        3.24271       -3.59674
H         -1.17178        4.50425       -3.02920
H         -2.33732        2.91741       -4.53598
H         -3.05960        2.93481       -2.91956
H         -2.84342        0.61396       -3.60067
H         -1.20808       -0.27890       -1.86929
H         -2.39718        0.84880       -1.28505
H         -0.61828       -0.11222       -4.09438

--Link1--
%chk=JID_4466.chk
%mem=8GB
%nprocshared=4
# B3LYP/6-311++G(d,p) empiricaldispersion=gd3bj scf=xqc pop=npa geom=check

CID_63585730_JID_4466_Energie_neutraal

0 1

--Link1--
%chk=JID_4466.chk
%mem=8GB
%nprocshared=4
# B3LYP/6-311++G(d,p) empiricaldispersion=gd3bj scf=xqc pop=npa geom=check

CID_63585730_JID_4466_Energie_kation

1 2

--Link1--
%chk=JID_4466.chk
%mem=8GB
%nprocshared=4
# B3LYP/6-311++G(d,p) empiricaldispersion=gd3bj scf=xqc pop=npa geom=check

CID_63585730_JID_4466_Energie_anion

-1 2
