%chk=JID_5954.chk
%mem=8GB
%nprocshared=4
# opt freq B3LYP/6-31G(d) empiricaldispersion=gd3bj scf=xqc

CID_116190346_JID_5954_neutraal

0 1
C         -1.74700        0.00400       -0.45100
C         -0.73365       -0.45573        0.59424
C          0.78351       -0.27667        0.31846
C          0.77231       -1.63437       -0.40685
C         -0.45324       -1.99538        0.44983
N         -1.22385       -0.15003        1.94951
C         -1.19934        0.92668        2.78196
O         -1.90077        0.79510        3.79655
C         -0.41052        2.23252        2.54275
C         -0.72055        3.23941        3.69342
C          0.49233        4.16262        3.81594
C          1.58864        3.54063        2.96128
C          1.12845        2.10620        2.66260
N          1.57594        1.21447        3.73538
C         -0.82356        2.89306        1.21854
H         -1.87573        1.08663       -0.45912
H         -1.44767       -0.28662       -1.46379
H         -2.73085       -0.44111       -0.26204
H          1.07104        0.57382       -0.30428
H          1.41973       -0.30966        1.20881
H          1.65629       -2.25960       -0.25734
H          0.56583       -1.56686       -1.48063
H         -0.18822       -2.50122        1.38724
H         -1.21856       -2.59113       -0.05653
H         -1.80884       -0.85715        2.38742
H         -1.63950        3.80858        3.51077
H         -0.85732        2.73371        4.65723
H          0.80603        4.24116        4.86273
H          0.25920        5.17471        3.46831
H          2.56685        3.59164        3.45230
H          1.68568        4.10084        2.02286
H          1.59330        1.78307        1.73026
H          2.57820        1.32053        3.88727
H          1.12645        1.45665        4.61930
H         -1.90752        2.83185        1.07169
H         -0.55678        3.95504        1.17997
H         -0.33187        2.42003        0.36547

--Link1--
%chk=JID_5954.chk
%mem=8GB
%nprocshared=4
# B3LYP/6-311++G(d,p) empiricaldispersion=gd3bj scf=xqc pop=npa geom=check

CID_116190346_JID_5954_Energie_neutraal

0 1

--Link1--
%chk=JID_5954.chk
%mem=8GB
%nprocshared=4
# B3LYP/6-311++G(d,p) empiricaldispersion=gd3bj scf=xqc pop=npa geom=check

CID_116190346_JID_5954_Energie_kation

1 2

--Link1--
%chk=JID_5954.chk
%mem=8GB
%nprocshared=4
# B3LYP/6-311++G(d,p) empiricaldispersion=gd3bj scf=xqc pop=npa geom=check

CID_116190346_JID_5954_Energie_anion

-1 2
