%chk=JID_9486.chk
%mem=8GB
%nprocshared=4
# opt freq B3LYP/6-31G(d) empiricaldispersion=gd3bj scf=xqc

CID_1499180_JID_9486_neutraal

0 1
C          2.49200        0.00400       -0.01400
C          0.99613       -0.05157       -0.09717
C          0.36108       -1.12685       -0.72582
C         -1.03441       -1.20907       -0.75749
C         -1.81380       -0.23435       -0.13387
C         -1.17999        0.85739        0.46768
C          0.21441        0.94026        0.50153
N         -3.22089       -0.25625       -0.10326
C         -4.10811       -1.22682       -0.43452
O         -5.19945       -0.90410       -0.90899
N         -3.82263       -2.54087       -0.27947
C         -3.10063       -3.13280        0.73608
C         -2.56573       -2.79581        1.97245
N         -1.77752       -3.81113        2.53446
N         -1.79219       -4.91891        1.81540
S         -2.73388       -4.78408        0.44799
C         -2.78020       -1.59336        2.75324
O         -2.01505       -1.13514        3.59153
O         -3.99280       -1.01048        2.59018
H          2.83652       -0.52450        0.88018
H          2.94958       -0.45590       -0.89623
H          2.84358        1.04018        0.03023
H          0.94970       -1.90930       -1.20065
H         -1.48150       -2.03505       -1.30001
H         -1.75848        1.64137        0.94954
H          0.68572        1.78097        1.00632
H         -3.67089        0.64712       -0.01555
H         -4.40481       -3.15862       -0.83135
H         -3.96985       -0.28142        3.24374

--Link1--
%chk=JID_9486.chk
%mem=8GB
%nprocshared=4
# B3LYP/6-311++G(d,p) empiricaldispersion=gd3bj scf=xqc pop=npa geom=check

CID_1499180_JID_9486_Energie_neutraal

0 1

--Link1--
%chk=JID_9486.chk
%mem=8GB
%nprocshared=4
# B3LYP/6-311++G(d,p) empiricaldispersion=gd3bj scf=xqc pop=npa geom=check

CID_1499180_JID_9486_Energie_kation

1 2

--Link1--
%chk=JID_9486.chk
%mem=8GB
%nprocshared=4
# B3LYP/6-311++G(d,p) empiricaldispersion=gd3bj scf=xqc pop=npa geom=check

CID_1499180_JID_9486_Energie_anion

-1 2
