%chk=JID_8122.chk
%mem=8GB
%nprocshared=4
# opt freq B3LYP/6-31G(d) empiricaldispersion=gd3bj scf=xqc

CID_112636651_JID_8122_neutraal

0 1
C          1.05391        0.08243        0.01728
C          0.22552        0.65674        1.15772
C          0.01086        2.16346        1.02493
O         -0.77508        2.43007       -0.13823
C         -0.15375        3.14666       -1.14103
N          1.02175        3.75067       -0.91803
C          1.54809        4.43005       -1.93840
N          0.97375        4.53636       -3.14685
C         -0.20762        3.91439       -3.33492
C         -0.82585        3.20015       -2.33655
C         -0.83654        4.02239       -4.69001
N          2.76738        5.05148       -1.68646
C          2.90167        6.35342       -2.34273
C          1.98357        7.39883       -1.67856
O          1.95324        7.47175       -0.44362
N          1.21973        8.24284       -2.48130
C          1.05842        8.05707       -3.91380
C          0.22470        9.07794       -1.82859
H          2.02416        0.58414       -0.05419
H          0.53915        0.18612       -0.94271
H          1.23498       -0.98416        0.18433
H         -0.74491        0.14698        1.17216
H          0.72545        0.44581        2.10960
H         -0.57157        2.51286        1.88515
H          0.97262        2.68516        1.07039
H         -1.77363        2.69963       -2.47549
H         -1.81905        4.49847       -4.61496
H         -0.21598        4.62576       -5.36050
H         -0.95064        3.02863       -5.13425
H          2.80971        5.12790       -0.67095
H          3.92828        6.70842       -2.19369
H          2.76786        6.25776       -3.42054
H          0.40966        7.19524       -4.08979
H          0.60909        8.95035       -4.35785
H          2.02701        7.89863       -4.39237
H          0.49027        9.29114       -0.78964
H          0.14069       10.02732       -2.36557
H         -0.73671        8.55587       -1.84897

--Link1--
%chk=JID_8122.chk
%mem=8GB
%nprocshared=4
# B3LYP/6-311++G(d,p) empiricaldispersion=gd3bj scf=xqc pop=npa geom=check

CID_112636651_JID_8122_Energie_neutraal

0 1

--Link1--
%chk=JID_8122.chk
%mem=8GB
%nprocshared=4
# B3LYP/6-311++G(d,p) empiricaldispersion=gd3bj scf=xqc pop=npa geom=check

CID_112636651_JID_8122_Energie_kation

1 2

--Link1--
%chk=JID_8122.chk
%mem=8GB
%nprocshared=4
# B3LYP/6-311++G(d,p) empiricaldispersion=gd3bj scf=xqc pop=npa geom=check

CID_112636651_JID_8122_Energie_anion

-1 2
