%chk=JID_5372.chk
%mem=8GB
%nprocshared=4
# opt freq B3LYP/6-31G(d) empiricaldispersion=gd3bj scf=xqc

CID_84779502_JID_5372_neutraal

0 1
C          0.95741       -0.07899        0.04412
C          0.47212        1.04550        0.86901
N          0.32384        0.95094        2.19400
N         -0.12533        2.18470        2.51581
C         -0.48322        2.68220        3.76134
C         -0.94601        3.93877        3.88523
C         -0.97306        4.70862        2.59718
N         -0.64996        4.26894        1.41934
C         -0.22340        2.97235        1.36348
N          0.15013        2.25672        0.32603
C         -1.38111        4.64820        5.13564
C         -2.89978        5.02316        5.16022
C         -3.83283        3.80891        5.10461
N         -3.20763        5.80678        6.36594
O         -1.03763        3.86936        6.29048
H          0.69705        0.07041       -1.00833
H          0.51320       -1.02454        0.37063
H          2.04584       -0.16272        0.11905
H         -0.36481        1.99406        4.58733
H         -1.30445        5.75806        2.68067
H         -0.79353        5.57173        5.21674
H         -3.12282        5.65812        4.29492
H         -3.73046        3.16725        5.98587
H         -4.87983        4.12988        5.05354
H         -3.63995        3.20040        4.21552
H         -4.21335        5.85077        6.52426
H         -2.79838        5.34830        7.18319
H         -1.63900        3.10920        6.33920

--Link1--
%chk=JID_5372.chk
%mem=8GB
%nprocshared=4
# B3LYP/6-311++G(d,p) empiricaldispersion=gd3bj scf=xqc pop=npa geom=check

CID_84779502_JID_5372_Energie_neutraal

0 1

--Link1--
%chk=JID_5372.chk
%mem=8GB
%nprocshared=4
# B3LYP/6-311++G(d,p) empiricaldispersion=gd3bj scf=xqc pop=npa geom=check

CID_84779502_JID_5372_Energie_kation

1 2

--Link1--
%chk=JID_5372.chk
%mem=8GB
%nprocshared=4
# B3LYP/6-311++G(d,p) empiricaldispersion=gd3bj scf=xqc pop=npa geom=check

CID_84779502_JID_5372_Energie_anion

-1 2
