%chk=JID_9696.chk
%mem=8GB
%nprocshared=4
# opt freq B3LYP/6-31G(d) empiricaldispersion=gd3bj scf=xqc

CID_107000218_JID_9696_neutraal

0 1
C          1.04993        0.06666       -0.05536
C          1.19239       -0.45620       -1.47709
C          1.91500       -1.80349       -1.55840
N          1.08606       -2.93283       -1.13817
C          0.18685       -3.52053       -2.13178
C          0.66184       -4.84814       -2.68175
C          2.00002       -5.07108       -3.02948
C          2.40752       -6.30256       -3.55373
C          1.49954       -7.35011       -3.70833
C          0.15276       -7.10641       -3.43787
C         -0.26230       -5.87595       -2.91671
N          1.89064       -8.53561       -4.34174
C          1.17201       -3.37558        0.17893
O          1.92624       -2.87820        1.00980
C          0.31068       -4.52762        0.57933
C         -0.07556       -4.71738        2.03230
C         -1.13676       -4.34572        1.02879
C         -1.72906       -2.96380        1.13793
C         -2.12692       -5.40661        0.62497
H          0.39702       -0.57444        0.54160
H          0.60962        1.06891       -0.06653
H          2.02344        0.13120        0.44065
H          0.20216       -0.52090       -1.94225
H          1.76899        0.27897       -2.05114
H          2.22679       -1.98170       -2.59398
H          2.83146       -1.77208       -0.95807
H         -0.79617       -3.64223       -1.66724
H          0.05469       -2.81997       -2.96490
H          2.74458       -4.28996       -2.90123
H          3.44853       -6.43481       -3.83673
H         -0.59010       -7.87593       -3.63052
H         -1.31840       -5.72862       -2.70182
H          1.29272       -9.32763       -4.12816
H          2.87416       -8.75583       -4.21784
H          0.58304       -5.45000        0.07444
H          0.25536       -3.97209        2.74916
H         -0.05622       -5.72651        2.42869
H         -1.01715       -2.23663        1.53998
H         -2.06053       -2.60952        0.15678
H         -2.59666       -2.97536        1.80629
H         -2.57432       -5.16118       -0.34362
H         -1.65907       -6.39323        0.53807
H         -2.92987       -5.48039        1.36576

--Link1--
%chk=JID_9696.chk
%mem=8GB
%nprocshared=4
# B3LYP/6-311++G(d,p) empiricaldispersion=gd3bj scf=xqc pop=npa geom=check

CID_107000218_JID_9696_Energie_neutraal

0 1

--Link1--
%chk=JID_9696.chk
%mem=8GB
%nprocshared=4
# B3LYP/6-311++G(d,p) empiricaldispersion=gd3bj scf=xqc pop=npa geom=check

CID_107000218_JID_9696_Energie_kation

1 2

--Link1--
%chk=JID_9696.chk
%mem=8GB
%nprocshared=4
# B3LYP/6-311++G(d,p) empiricaldispersion=gd3bj scf=xqc pop=npa geom=check

CID_107000218_JID_9696_Energie_anion

-1 2
