%chk=JID_7152.chk
%mem=8GB
%nprocshared=4
# opt freq B3LYP/6-31G(d) empiricaldispersion=gd3bj scf=xqc

CID_123919180_JID_7152_neutraal

0 1
C          2.49600       -0.00700       -0.12600
C          1.06361        0.01437        0.40375
C          0.39416        1.36002        0.10122
C         -1.07018        1.36207        0.53609
C         -1.90653        0.25320       -0.13475
C         -1.21777       -1.08134        0.26376
C          0.24820       -1.15083       -0.17053
C         -2.18152        0.38596       -1.69371
C         -2.85157       -0.91217       -2.30413
C         -4.25319       -1.51056       -1.91721
C         -5.38689       -0.95611       -2.80158
C         -4.18783       -3.03304       -2.21525
C         -4.67975       -1.35656       -0.45362
C         -2.76299        1.77242       -2.23904
C         -1.66597        2.87169       -2.29727
C         -3.23053        1.66919       -3.71302
C         -3.92573        2.30586       -1.38943
H          2.52002        0.11052       -1.21471
H          3.08540        0.80353        0.31538
H          2.98751       -0.95331        0.12317
H          1.10850       -0.10688        1.49443
H          0.92564        2.16038        0.63044
H          0.47550        1.58416       -0.96700
H         -1.52055        2.34550        0.40972
H         -1.09704        1.20084        1.62372
H         -2.87452        0.28338        0.37041
H         -1.75038       -1.95497       -0.11781
H         -1.25988       -1.18217        1.35718
H          0.31349       -1.15840       -1.26466
H          0.67732       -2.10040        0.17244
H         -1.17952        0.35010       -2.14800
H         -2.82800       -0.82133       -3.39826
H         -2.11350       -1.71033       -2.14557
H         -5.14650       -1.04965       -3.86628
H         -6.32165       -1.50584       -2.63560
H         -5.60419        0.09077       -2.58534
H         -3.44080       -3.52835       -1.58450
H         -5.15102       -3.52149       -2.02650
H         -3.92176       -3.21934       -3.26220
H         -3.95684       -1.80083        0.23460
H         -4.83822       -0.31115       -0.18125
H         -5.63339       -1.86782       -0.27043
H         -0.77653        2.51454       -2.82826
H         -2.02491        3.75781       -2.83638
H         -1.35656        3.24045       -1.32221
H         -4.10437        1.03456       -3.83831
H         -3.51803        2.65068       -4.11024
H         -2.43002        1.28271       -4.35426
H         -4.75909        1.60511       -1.35131
H         -3.62328        2.51436       -0.35983
H         -4.31446        3.24438       -1.80240

--Link1--
%chk=JID_7152.chk
%mem=8GB
%nprocshared=4
# B3LYP/6-311++G(d,p) empiricaldispersion=gd3bj scf=xqc pop=npa geom=check

CID_123919180_JID_7152_Energie_neutraal

0 1

--Link1--
%chk=JID_7152.chk
%mem=8GB
%nprocshared=4
# B3LYP/6-311++G(d,p) empiricaldispersion=gd3bj scf=xqc pop=npa geom=check

CID_123919180_JID_7152_Energie_kation

1 2

--Link1--
%chk=JID_7152.chk
%mem=8GB
%nprocshared=4
# B3LYP/6-311++G(d,p) empiricaldispersion=gd3bj scf=xqc pop=npa geom=check

CID_123919180_JID_7152_Energie_anion

-1 2
