%chk=JID_6358.chk
%mem=8GB
%nprocshared=4
# opt freq B3LYP/6-31G(d) empiricaldispersion=gd3bj scf=xqc

CID_63554148_JID_6358_neutraal

0 1
C          2.44200       -0.09800       -0.00700
C          0.97459        0.02958        0.26994
N          0.41866        1.25103        0.09965
C         -0.90724        1.39460        0.36376
C         -1.69923        0.33490        0.79727
C         -1.11399       -0.91750        0.95782
C          0.24200       -1.07465        0.69228
C         -1.48776        2.72848        0.18879
N         -0.89735        3.72662       -0.49322
O         -1.79730        4.78072       -0.39310
C         -2.84061        4.33297        0.35869
N         -2.71666        3.07866        0.72734
C         -3.92192        5.30155        0.65433
C         -3.44055        6.45854        1.53954
N         -2.68669        7.46234        0.77692
C         -2.23929        8.55032        1.63777
H          2.86206        0.85851       -0.33445
H          2.97145       -0.41062        0.89837
H          2.61522       -0.83446       -0.79780
H         -2.75566        0.47634        1.00333
H         -1.71031       -1.76272        1.28968
H          0.71727       -2.04257        0.81631
H         -4.35612        5.67832       -0.27909
H         -4.72466        4.77130        1.18141
H         -4.32548        6.94274        1.97030
H         -2.83427        6.07295        2.36905
H         -1.86659        7.02801        0.34688
H         -1.56438        8.18972        2.42074
H         -1.69636        9.28780        1.03847
H         -3.08755        9.06313        2.10221

--Link1--
%chk=JID_6358.chk
%mem=8GB
%nprocshared=4
# B3LYP/6-311++G(d,p) empiricaldispersion=gd3bj scf=xqc pop=npa geom=check

CID_63554148_JID_6358_Energie_neutraal

0 1

--Link1--
%chk=JID_6358.chk
%mem=8GB
%nprocshared=4
# B3LYP/6-311++G(d,p) empiricaldispersion=gd3bj scf=xqc pop=npa geom=check

CID_63554148_JID_6358_Energie_kation

1 2

--Link1--
%chk=JID_6358.chk
%mem=8GB
%nprocshared=4
# B3LYP/6-311++G(d,p) empiricaldispersion=gd3bj scf=xqc pop=npa geom=check

CID_63554148_JID_6358_Energie_anion

-1 2
