%chk=JID_7535.chk
%mem=8GB
%nprocshared=4
# opt freq B3LYP/6-31G(d) empiricaldispersion=gd3bj scf=xqc

CID_132149968_JID_7535_neutraal

0 1
C          0.91227       -0.03357       -0.03429
C          2.07750        0.62914        0.68258
C          3.19668        1.09907       -0.24624
S          2.72002        2.52361       -1.28254
C          2.38523        1.69223       -2.86746
S          3.92920        1.13665       -3.64865
C          3.31160        0.71761       -5.31734
C          2.48441       -0.56470       -5.35992
C          0.99317       -0.32162       -5.24871
O          0.49595        0.80143       -5.20731
N          0.16844       -1.40936       -5.22917
C          0.52938       -2.79912       -5.01839
C          0.65190       -3.15010       -3.53973
S         -0.89923       -3.12800       -2.65462
C         -2.11217       -4.11959       -3.48575
C         -0.62949       -3.81673       -1.04330
C         -1.51080       -1.47254       -2.46209
H          0.35272        0.68496       -0.63989
H          0.21625       -0.46163        0.69438
H          1.26078       -0.84259       -0.68375
H          1.70977        1.46204        1.29392
H          2.50350       -0.10134        1.38164
H          4.03750        1.43448        0.37080
H          3.56493        0.26730       -0.85368
H          1.71018        0.84927       -2.70747
H          1.89742        2.42304       -3.51762
H          2.79357        1.58136       -5.74558
H          4.21126        0.56199       -5.92335
H          2.64099       -1.03568       -6.33888
H          2.81279       -1.27307       -4.59292
H         -0.81138       -1.16565       -5.14317
H         -0.23858       -3.40663       -5.50616
H          1.47954       -3.00005       -5.52208
H          1.04650       -4.16552       -3.43152
H          1.32167       -2.46172       -3.01492
H         -1.66012       -5.08019       -3.73795
H         -2.95979       -4.26309       -2.81342
H         -2.43267       -3.59832       -4.38900
H          0.12822       -3.21972       -0.53362
H         -1.57053       -3.78949       -0.49141
H         -0.28734       -4.84638       -1.16005
H         -0.66833       -0.78116       -2.48610
H         -2.20355       -1.25643       -3.27667
H         -2.02905       -1.40147       -1.50434

--Link1--
%chk=JID_7535.chk
%mem=8GB
%nprocshared=4
# B3LYP/6-311++G(d,p) empiricaldispersion=gd3bj scf=xqc pop=npa geom=check

CID_132149968_JID_7535_Energie_neutraal

0 1

--Link1--
%chk=JID_7535.chk
%mem=8GB
%nprocshared=4
# B3LYP/6-311++G(d,p) empiricaldispersion=gd3bj scf=xqc pop=npa geom=check

CID_132149968_JID_7535_Energie_kation

1 2

--Link1--
%chk=JID_7535.chk
%mem=8GB
%nprocshared=4
# B3LYP/6-311++G(d,p) empiricaldispersion=gd3bj scf=xqc pop=npa geom=check

CID_132149968_JID_7535_Energie_anion

-1 2
