%chk=JID_5923.chk
%mem=8GB
%nprocshared=4
# opt freq B3LYP/6-31G(d) empiricaldispersion=gd3bj scf=xqc

CID_71564965_JID_5923_neutraal

0 1
C          1.08158        0.05746        0.00654
C          0.73186       -0.69249        1.28497
C          0.93719        0.11479        2.57711
C         -0.15506        1.15818        2.94638
C         -1.47001        0.45657        3.32900
C          0.33324        1.91749        4.21139
O          0.46122        3.13207        4.31486
O          0.62939        1.12247        5.25950
N         -0.21776        2.14386        1.84063
C         -1.47801        2.37538        1.14685
C         -2.33671        3.49863        1.72655
C         -1.74836        4.91720        1.65645
N         -1.55428        5.38772        0.27238
C         -2.00669        6.77388        0.12528
C         -0.14585        5.30198       -0.13105
H          0.30826        0.76980       -0.28276
H          1.17658       -0.65339       -0.82162
H          2.03478        0.58656        0.10177
H         -0.28813       -1.08412        1.21906
H          1.39138       -1.56831        1.33868
H          1.01057       -0.61416        3.39673
H          1.92205        0.60160        2.54124
H         -1.31320       -0.25018        4.15313
H         -2.22085        1.17319        3.67820
H         -1.89870       -0.11847        2.50350
H          0.93488        1.74424        5.95270
H          0.19338        3.02873        2.14955
H         -1.24092        2.62062        0.10606
H         -2.06917        1.45857        1.06324
H         -3.29783        3.49623        1.19492
H         -2.57364        3.27618        2.77342
H         -2.47441        5.56218        2.17043
H         -0.82809        4.99360        2.24795
H         -1.46267        7.45809        0.78663
H         -1.87681        7.11538       -0.90808
H         -3.07708        6.85372        0.34532
H          0.49929        5.93770        0.48652
H          0.23298        4.27867       -0.07229
H         -0.02983        5.61039       -1.17651

--Link1--
%chk=JID_5923.chk
%mem=8GB
%nprocshared=4
# B3LYP/6-311++G(d,p) empiricaldispersion=gd3bj scf=xqc pop=npa geom=check

CID_71564965_JID_5923_Energie_neutraal

0 1

--Link1--
%chk=JID_5923.chk
%mem=8GB
%nprocshared=4
# B3LYP/6-311++G(d,p) empiricaldispersion=gd3bj scf=xqc pop=npa geom=check

CID_71564965_JID_5923_Energie_kation

1 2

--Link1--
%chk=JID_5923.chk
%mem=8GB
%nprocshared=4
# B3LYP/6-311++G(d,p) empiricaldispersion=gd3bj scf=xqc pop=npa geom=check

CID_71564965_JID_5923_Energie_anion

-1 2
