%chk=JID_10367.chk
%mem=8GB
%nprocshared=4
# opt freq B3LYP/6-31G(d) empiricaldispersion=gd3bj scf=xqc

CID_66209138_JID_10367_neutraal

0 1
C          0.96641        0.07592        0.05575
C          0.52199        1.52553        0.09616
C          1.03209        2.48464       -1.01283
C          0.87904        3.91472       -0.41546
C          2.19203        4.58888       -0.01970
N          2.48150        5.57854       -1.06505
C          1.16071        6.03622       -1.51867
C          0.29623        4.78875       -1.50967
C          0.41639        3.93715       -2.75199
N          0.24627        2.53676       -2.27624
C          0.69791        1.64402       -3.38274
C          0.79133        0.14623       -3.11916
C         -0.18402        1.80710       -4.64481
O          0.32373        2.07558       -5.73841
N         -1.51895        1.49245       -4.58783
C         -2.33414        2.48761       -4.15903
O         -2.67538        3.40400       -4.90408
N         -2.92714        2.36649       -2.94745
C         -2.94694        1.20140       -2.09029
C         -3.46646        1.55016       -0.70863
H          2.02247       -0.01483       -0.21296
H          0.35298       -0.51823       -0.62125
H          0.84122       -0.37374        1.04753
H         -0.57178        1.56334        0.15147
H          0.88025        1.90848        1.06240
H          2.08919        2.28313       -1.22846
H          0.19147        3.93265        0.44095
H          3.02205        3.88740        0.10865
H          2.06524        5.11560        0.93386
H          2.95220        5.11073       -1.84023
H          0.77495        6.77544       -0.80676
H          1.21521        6.51316       -2.50216
H         -0.75557        5.02637       -1.30988
H          1.39532        4.07992       -3.22884
H         -0.34756        4.22878       -3.47823
H          1.70959        1.95522       -3.68326
H          0.97797       -0.39932       -4.05281
H          1.63154       -0.08339       -2.46184
H         -0.13362       -0.26095       -2.70619
H         -1.73368        1.47479       -5.58035
H         -3.63042        3.07900       -2.79625
H         -3.59130        0.45286       -2.56300
H         -1.94418        0.78067       -2.01996
H         -4.49629        1.91902       -0.75964
H         -3.44826        0.67064       -0.05837
H         -2.85769        2.33488       -0.24727

--Link1--
%chk=JID_10367.chk
%mem=8GB
%nprocshared=4
# B3LYP/6-311++G(d,p) empiricaldispersion=gd3bj scf=xqc pop=npa geom=check

CID_66209138_JID_10367_Energie_neutraal

0 1

--Link1--
%chk=JID_10367.chk
%mem=8GB
%nprocshared=4
# B3LYP/6-311++G(d,p) empiricaldispersion=gd3bj scf=xqc pop=npa geom=check

CID_66209138_JID_10367_Energie_kation

1 2

--Link1--
%chk=JID_10367.chk
%mem=8GB
%nprocshared=4
# B3LYP/6-311++G(d,p) empiricaldispersion=gd3bj scf=xqc pop=npa geom=check

CID_66209138_JID_10367_Energie_anion

-1 2
