%chk=JID_6423.chk
%mem=8GB
%nprocshared=4
# opt freq B3LYP/6-31G(d) empiricaldispersion=gd3bj scf=xqc

CID_121598321_JID_6423_neutraal

0 1
C          2.18000       -0.00100        0.04500
N          0.84098        0.09595       -0.47261
C         -0.04256       -0.92481       -0.72834
N         -1.15748       -0.40579       -1.20434
N         -1.01024        0.95679       -1.26724
C          0.20041        1.25348       -0.83339
S          0.85444        2.88047       -0.75272
O          0.34738        3.45229        0.47236
O          2.27242        2.76848       -1.00994
N          0.18691        3.77354       -2.01213
C          0.23139       -2.38300       -0.56788
C         -0.20700       -2.99655        0.76385
C          0.44319       -2.42081        2.01970
C         -0.38714       -3.01233        3.15397
C         -1.78038       -3.25490        2.57047
C         -1.69541       -2.88142        1.09103
H          2.36762       -0.99945        0.44075
H          2.88169        0.19906       -0.76827
H          2.30172        0.72328        0.85445
H         -0.83157        3.68628       -2.00475
H          0.49252        4.74399       -1.95298
H         -0.29212       -2.90955       -1.37702
H          1.29634       -2.58641       -0.72964
H          0.04349       -4.06689        0.71712
H          1.49993       -2.69144        2.10533
H          0.36513       -1.32858        2.05045
H         -0.41543       -2.34648        4.02214
H          0.04645       -3.96401        3.48325
H         -2.54290       -2.66027        3.08385
H         -2.05396       -4.30983        2.68626
H         -2.05922       -1.85642        0.95936
H         -2.31013       -3.53888        0.46858

--Link1--
%chk=JID_6423.chk
%mem=8GB
%nprocshared=4
# B3LYP/6-311++G(d,p) empiricaldispersion=gd3bj scf=xqc pop=npa geom=check

CID_121598321_JID_6423_Energie_neutraal

0 1

--Link1--
%chk=JID_6423.chk
%mem=8GB
%nprocshared=4
# B3LYP/6-311++G(d,p) empiricaldispersion=gd3bj scf=xqc pop=npa geom=check

CID_121598321_JID_6423_Energie_kation

1 2

--Link1--
%chk=JID_6423.chk
%mem=8GB
%nprocshared=4
# B3LYP/6-311++G(d,p) empiricaldispersion=gd3bj scf=xqc pop=npa geom=check

CID_121598321_JID_6423_Energie_anion

-1 2
