%chk=JID_9751.chk
%mem=8GB
%nprocshared=4
# opt freq B3LYP/6-31G(d) empiricaldispersion=gd3bj scf=xqc

CID_115125108_JID_9751_neutraal

0 1
C          2.54100       -1.13900        0.05100
C          1.33161       -0.37068        0.49642
C          0.43755       -0.93427        1.41678
C         -0.69571       -0.23040        1.83311
C         -0.99362        1.02455        1.25608
C         -0.11627        1.57267        0.31481
C          1.04203        0.88327       -0.05532
N         -2.21612        1.68079        1.57538
C         -3.31616        1.18317        0.72620
C         -4.66549        1.70791        1.23495
C         -4.84454        3.19678        1.04663
C         -4.52676        4.08666        2.08173
C         -4.67680        5.47421        1.92310
C         -5.17080        5.97902        0.70469
C         -5.47667        5.08564       -0.33276
C         -5.31386        3.70957       -0.16531
C         -5.36329        7.45466        0.48616
C         -4.32978        6.38561        3.06849
N         -1.63752       -0.84652        2.68937
H          2.92311       -1.76866        0.86139
H          2.28701       -1.77469       -0.80275
H          3.34920       -0.46027       -0.24111
H          0.62405       -1.92915        1.81219
H         -0.33384        2.53093       -0.14751
H          1.70840        1.32490       -0.79286
H         -2.10587        2.68201        1.40921
H         -3.15450        1.49222       -0.31451
H         -3.35565        0.08739        0.74537
H         -5.47458        1.18992        0.70411
H         -4.79238        1.45397        2.29531
H         -4.15400        3.68978        3.02544
H         -5.85168        5.45761       -1.28395
H         -5.56483        3.04257       -0.98676
H         -6.00212        7.87764        1.26804
H         -4.39598        7.96664        0.48763
H         -5.84840        7.65866       -0.47438
H         -3.85599        5.83681        3.88942
H         -3.62342        7.15667        2.74495
H         -5.23461        6.86010        3.46099
H         -1.19681       -1.40454        3.41132
H         -2.23595       -0.11095        3.07076

--Link1--
%chk=JID_9751.chk
%mem=8GB
%nprocshared=4
# B3LYP/6-311++G(d,p) empiricaldispersion=gd3bj scf=xqc pop=npa geom=check

CID_115125108_JID_9751_Energie_neutraal

0 1

--Link1--
%chk=JID_9751.chk
%mem=8GB
%nprocshared=4
# B3LYP/6-311++G(d,p) empiricaldispersion=gd3bj scf=xqc pop=npa geom=check

CID_115125108_JID_9751_Energie_kation

1 2

--Link1--
%chk=JID_9751.chk
%mem=8GB
%nprocshared=4
# B3LYP/6-311++G(d,p) empiricaldispersion=gd3bj scf=xqc pop=npa geom=check

CID_115125108_JID_9751_Energie_anion

-1 2
