%chk=JID_9715.chk
%mem=8GB
%nprocshared=4
# opt freq B3LYP/6-31G(d) empiricaldispersion=gd3bj scf=xqc

CID_105710647_JID_9715_neutraal

0 1
C          1.08980        0.02924       -0.03288
O          1.07981       -1.32782       -0.45436
C          1.67256       -2.18560        0.51926
C          1.99588       -3.54477       -0.11769
C          3.12365       -3.43475       -1.17699
N          4.43069       -3.01652       -0.63036
C          5.28388       -4.08469       -0.10429
C          5.96728       -3.75264        1.20775
C          7.28290       -3.09671        0.90635
O          8.34401       -3.48020        1.38852
N          7.25789       -2.04938        0.03368
C          6.11215       -1.16329       -0.09520
C          4.84518       -1.70168       -0.83776
O          4.12030       -0.90419       -1.44488
C          6.61663        0.11130       -0.74278
C          6.07693        1.45683       -0.31942
C          7.48868        1.07734        0.02670
O          2.37975       -4.50647        0.88175
C          1.26733       -5.13221        1.50918
H          0.60413        0.63301       -0.80404
H          2.11607        0.38652        0.09412
H          0.53369        0.14219        0.90274
H          2.57761       -1.73829        0.94712
H          0.96278       -2.30379        1.34475
H          1.10894       -3.91171       -0.65201
H          3.27263       -4.41160       -1.65406
H          2.80919       -2.74936       -1.97157
H          4.66815       -4.97668        0.05191
H          6.00364       -4.33816       -0.89267
H          6.18654       -4.68233        1.74601
H          5.36058       -3.11971        1.86242
H          8.17314       -1.62508       -0.05949
H          5.77326       -0.93509        0.92487
H          6.82555       -0.02650       -1.79937
H          5.91903        2.19898       -1.09464
H          5.34394        1.49629        0.47831
H          7.71358        0.86861        1.06668
H          8.29091        1.57340       -0.50845
H          0.64887       -4.40295        2.03835
H          0.66632       -5.67269        0.77163
H          1.64879       -5.85283        2.23773

--Link1--
%chk=JID_9715.chk
%mem=8GB
%nprocshared=4
# B3LYP/6-311++G(d,p) empiricaldispersion=gd3bj scf=xqc pop=npa geom=check

CID_105710647_JID_9715_Energie_neutraal

0 1

--Link1--
%chk=JID_9715.chk
%mem=8GB
%nprocshared=4
# B3LYP/6-311++G(d,p) empiricaldispersion=gd3bj scf=xqc pop=npa geom=check

CID_105710647_JID_9715_Energie_kation

1 2

--Link1--
%chk=JID_9715.chk
%mem=8GB
%nprocshared=4
# B3LYP/6-311++G(d,p) empiricaldispersion=gd3bj scf=xqc pop=npa geom=check

CID_105710647_JID_9715_Energie_anion

-1 2
