%chk=JID_9168.chk
%mem=8GB
%nprocshared=4
# opt freq B3LYP/6-31G(d) empiricaldispersion=gd3bj scf=xqc

CID_82537938_JID_9168_neutraal

0 1
C          2.42900        1.51200       -0.04500
N          1.48290        0.46163        0.25770
C          1.81962       -0.78797        0.70738
C          0.65431       -1.49957        0.88250
C         -0.42955       -0.65100        0.52569
C          0.11388        0.57155        0.13502
C         -0.69645        1.63151       -0.28212
C         -2.08608        1.42687       -0.30000
C         -2.69214        0.22008        0.07969
C         -1.83332       -0.81378        0.49679
N         -4.05938        0.05633        0.04846
C         -4.98356        1.00612       -0.56394
C         -6.29438        0.22895       -0.66429
C         -6.24570       -0.70609        0.54039
C         -4.76028       -1.11746        0.57297
C         -6.68191       -0.04241        1.84892
C         -7.20298       -1.19347        2.70453
N         -7.29143       -2.37827        1.83791
C         -7.19685       -1.88625        0.45911
H          2.30769        1.79587       -1.09348
H          2.22472        2.36070        0.61270
H          3.44613        1.14930        0.12395
H          2.85124       -1.07259        0.86678
H          0.58558       -2.52178        1.22948
H         -0.27878        2.58599       -0.58327
H         -2.69909        2.26639       -0.61750
H         -2.23151       -1.77656        0.79663
H         -5.10320        1.88557        0.07895
H         -4.66140        1.32689       -1.56049
H         -7.16448        0.89256       -0.67539
H         -6.30601       -0.35344       -1.59470
H         -4.57470       -1.97491       -0.08518
H         -4.43187       -1.36984        1.58776
H         -5.87238        0.49916        2.34969
H         -7.49763        0.66866        1.66830
H         -8.18874       -0.95267        3.11639
H         -6.53194       -1.39428        3.54652
H         -6.49567       -2.98612        2.03453
H         -8.19180       -1.57137        0.12134
H         -6.85126       -2.67486       -0.21703

--Link1--
%chk=JID_9168.chk
%mem=8GB
%nprocshared=4
# B3LYP/6-311++G(d,p) empiricaldispersion=gd3bj scf=xqc pop=npa geom=check

CID_82537938_JID_9168_Energie_neutraal

0 1

--Link1--
%chk=JID_9168.chk
%mem=8GB
%nprocshared=4
# B3LYP/6-311++G(d,p) empiricaldispersion=gd3bj scf=xqc pop=npa geom=check

CID_82537938_JID_9168_Energie_kation

1 2

--Link1--
%chk=JID_9168.chk
%mem=8GB
%nprocshared=4
# B3LYP/6-311++G(d,p) empiricaldispersion=gd3bj scf=xqc pop=npa geom=check

CID_82537938_JID_9168_Energie_anion

-1 2
