%chk=JID_2858.chk
%mem=8GB
%nprocshared=4
# opt freq B3LYP/6-31G(d) empiricaldispersion=gd3bj scf=xqc

CID_60883952_JID_2858_neutraal

0 1
C          0.90213        0.00573        0.01971
C          0.84075       -0.50779        1.46102
C          1.76360        0.20647        2.42022
C          2.95879        1.02580        1.98776
C          1.75986        1.71032        2.58220
N         -0.52903       -0.34982        1.91656
C         -1.13744       -1.29539        2.83993
C         -0.31071       -2.44855        3.41863
C         -1.10445       -2.92890        4.63725
C         -2.11840       -1.82783        4.96554
C         -1.71326       -0.63465        4.10867
O         -0.72096        0.11913        4.80289
H          0.67226        1.07420       -0.05343
H          0.18952       -0.53304       -0.61606
H          1.89706       -0.15458       -0.40903
H          1.12447       -1.56535        1.41924
H          1.90993       -0.37946        3.32331
H          3.85724        0.96188        2.59336
H          3.16209        1.19210        0.93743
H          1.14750        2.31544        1.92424
H          1.85514        2.11248        3.58533
H         -0.82470        0.61524        2.02676
H         -1.98161       -1.74514        2.29865
H          0.67476       -2.11965        3.76068
H         -0.15875       -3.25373        2.69255
H         -0.43205       -3.10997        5.48311
H         -1.62153       -3.87092        4.42462
H         -2.12319       -1.60028        6.03616
H         -3.12046       -2.16993        4.68105
H         -2.55946        0.02541        3.89424
H         -0.17261        0.54074        4.11887

--Link1--
%chk=JID_2858.chk
%mem=8GB
%nprocshared=4
# B3LYP/6-311++G(d,p) empiricaldispersion=gd3bj scf=xqc pop=npa geom=check

CID_60883952_JID_2858_Energie_neutraal

0 1

--Link1--
%chk=JID_2858.chk
%mem=8GB
%nprocshared=4
# B3LYP/6-311++G(d,p) empiricaldispersion=gd3bj scf=xqc pop=npa geom=check

CID_60883952_JID_2858_Energie_kation

1 2

--Link1--
%chk=JID_2858.chk
%mem=8GB
%nprocshared=4
# B3LYP/6-311++G(d,p) empiricaldispersion=gd3bj scf=xqc pop=npa geom=check

CID_60883952_JID_2858_Energie_anion

-1 2
