%chk=JID_4616.chk
%mem=8GB
%nprocshared=4
# opt freq B3LYP/6-31G(d) empiricaldispersion=gd3bj scf=xqc

CID_58961056_JID_4616_neutraal

0 1
C          1.04632       -0.05968       -0.06552
C          0.39256       -1.40322        0.26056
C          0.99781       -2.18939        1.44882
C          1.22437       -1.26294        2.68805
C         -0.05104       -0.67747        3.28681
C          0.20556       -3.42896        1.96786
O          0.60202       -3.95743        3.02142
C         -1.05802       -4.01835        1.28208
C         -2.29651       -3.22451        1.72032
C         -0.98841       -4.12468       -0.24446
C         -1.23532       -5.46859        1.80724
C          2.33167       -2.75061        0.94909
O          2.46360       -3.73360        0.23412
O          3.41570       -2.01924        1.26873
H          0.88335        0.67665        0.72605
H          0.60642        0.35036       -0.98116
H          2.12176       -0.16291       -0.23444
H         -0.67095       -1.21511        0.42120
H          0.47896       -1.99876       -0.65466
H          1.75169       -1.81297        3.47929
H          1.89408       -0.43211        2.43520
H         -0.70791       -1.46006        3.67609
H          0.20209       -0.01689        4.12273
H         -0.61077       -0.08691        2.55664
H         -2.27462       -2.19075        1.36849
H         -3.21549       -3.68109        1.33520
H         -2.37521       -3.18819        2.81308
H          0.01092       -4.41250       -0.58413
H         -1.69112       -4.87546       -0.62609
H         -1.27167       -3.19111       -0.73704
H         -0.36219       -6.08431        1.56064
H         -1.36093       -5.49404        2.89623
H         -2.11955       -5.94865        1.37184
H          4.16453       -2.51354        0.87292

--Link1--
%chk=JID_4616.chk
%mem=8GB
%nprocshared=4
# B3LYP/6-311++G(d,p) empiricaldispersion=gd3bj scf=xqc pop=npa geom=check

CID_58961056_JID_4616_Energie_neutraal

0 1

--Link1--
%chk=JID_4616.chk
%mem=8GB
%nprocshared=4
# B3LYP/6-311++G(d,p) empiricaldispersion=gd3bj scf=xqc pop=npa geom=check

CID_58961056_JID_4616_Energie_kation

1 2

--Link1--
%chk=JID_4616.chk
%mem=8GB
%nprocshared=4
# B3LYP/6-311++G(d,p) empiricaldispersion=gd3bj scf=xqc pop=npa geom=check

CID_58961056_JID_4616_Energie_anion

-1 2
