%chk=JID_2747.chk
%mem=8GB
%nprocshared=4
# opt freq B3LYP/6-31G(d) empiricaldispersion=gd3bj scf=xqc

CID_130957226_JID_2747_neutraal

0 1
C          1.26600       -0.09700        0.26800
C          0.79319        1.23541       -0.31545
C         -0.53931        0.94269       -1.00022
C         -1.07882       -0.27626       -0.24783
C          0.19320       -1.11707       -0.10171
N         -2.09188       -1.02346       -0.97313
C         -3.52298       -0.68818       -0.75288
C         -3.97979       -1.28043        0.62081
S         -5.09698        0.15301        0.86305
C         -3.81242        0.77850       -0.29491
C         -4.34759       -1.17412       -1.97032
N         -3.77612       -0.67534       -3.23478
H          1.35581       -0.01436        1.35728
H          2.24608       -0.38923       -0.12211
H          0.65656        1.96590        0.49023
H          1.51973        1.65322       -1.01958
H         -0.35799        0.70386       -2.05638
H         -1.20788        1.80701       -0.97065
H         -1.40463       -0.00033        0.76226
H          0.46121       -1.60061       -1.05042
H          0.09315       -1.90101        0.65605
H         -1.87493       -1.03573       -1.97664
H         -4.48495       -2.24996        0.56496
H         -3.21569       -1.34441        1.40339
H         -3.04502        1.32327        0.25820
H         -4.19452        1.44337       -1.07587
H         -4.33600       -2.27022       -2.00550
H         -5.39618       -0.86473       -1.90309
H         -4.30008       -1.08486       -4.00903
H         -3.93661        0.32975       -3.29837

--Link1--
%chk=JID_2747.chk
%mem=8GB
%nprocshared=4
# B3LYP/6-311++G(d,p) empiricaldispersion=gd3bj scf=xqc pop=npa geom=check

CID_130957226_JID_2747_Energie_neutraal

0 1

--Link1--
%chk=JID_2747.chk
%mem=8GB
%nprocshared=4
# B3LYP/6-311++G(d,p) empiricaldispersion=gd3bj scf=xqc pop=npa geom=check

CID_130957226_JID_2747_Energie_kation

1 2

--Link1--
%chk=JID_2747.chk
%mem=8GB
%nprocshared=4
# B3LYP/6-311++G(d,p) empiricaldispersion=gd3bj scf=xqc pop=npa geom=check

CID_130957226_JID_2747_Energie_anion

-1 2
