%chk=JID_4640.chk
%mem=8GB
%nprocshared=4
# opt freq B3LYP/6-31G(d) empiricaldispersion=gd3bj scf=xqc

CID_60883442_JID_4640_neutraal

0 1
C          0.98269        0.06265        0.07600
C          0.74006        0.92988        1.31492
C          0.96951        2.39217        0.96147
C          2.24366        2.94999        1.17072
C          2.53254        4.27453        0.82370
C          1.53241        5.06088        0.25888
C          0.26275        4.52384        0.03480
C         -0.01452        3.19802        0.37235
O          3.82410        4.65206        1.06358
C          4.18982        6.02044        0.88610
C          4.58086        6.28059       -0.53977
C          4.16530        7.32595       -1.26643
N         -0.59372        0.61505        1.84717
C         -0.84197        1.21108        3.15087
H          0.27955        0.29905       -0.73154
H          0.87493       -1.00150        0.31537
H          1.99592        0.21040       -0.31526
H          1.47744        0.62723        2.07047
H          3.03687        2.34075        1.60081
H          1.70858        6.08780       -0.03924
H         -0.51093        5.13911       -0.41792
H         -1.00580        2.80560        0.16416
H          3.42257        6.70501        1.26598
H          5.07741        6.18189        1.50868
H          5.25175        5.55324       -0.99200
H          4.48870        7.44825       -2.29614
H          3.49897        8.07943       -0.85786
H         -1.31238        0.89472        1.18537
H         -0.85502        2.30436        3.11411
H         -1.82112        0.88285        3.51429
H         -0.09768        0.88569        3.88460

--Link1--
%chk=JID_4640.chk
%mem=8GB
%nprocshared=4
# B3LYP/6-311++G(d,p) empiricaldispersion=gd3bj scf=xqc pop=npa geom=check

CID_60883442_JID_4640_Energie_neutraal

0 1

--Link1--
%chk=JID_4640.chk
%mem=8GB
%nprocshared=4
# B3LYP/6-311++G(d,p) empiricaldispersion=gd3bj scf=xqc pop=npa geom=check

CID_60883442_JID_4640_Energie_kation

1 2

--Link1--
%chk=JID_4640.chk
%mem=8GB
%nprocshared=4
# B3LYP/6-311++G(d,p) empiricaldispersion=gd3bj scf=xqc pop=npa geom=check

CID_60883442_JID_4640_Energie_anion

-1 2
