%chk=JID_7428.chk
%mem=8GB
%nprocshared=4
# opt freq B3LYP/6-31G(d) empiricaldispersion=gd3bj scf=xqc

CID_85822622_JID_7428_neutraal

0 1
C          0.94643        0.07535        0.03812
C          0.55292        1.51670        0.32100
C          0.69458        2.43951       -0.89201
C         -0.14476        2.05827       -2.11563
C         -1.65352        1.95203       -1.87525
C         -2.32841        3.20930       -1.31420
C         -2.15606        4.47792       -2.14961
N         -2.77142        4.36779       -3.45910
C         -3.01382        5.35707       -4.36852
O         -3.23627        5.00658       -5.53028
C         -3.05065        6.85397       -3.95727
C         -4.45253        7.35538       -3.48935
C         -4.93671        6.65224       -2.20898
C         -4.36019        8.86839       -3.17490
C         -5.51085        7.13396       -4.59346
O         -5.18092        7.83688       -5.78426
O         -2.04947        7.20097       -2.99841
H          0.26091       -0.39621       -0.67200
H          0.91881       -0.50970        0.96304
H          1.96094        0.01759       -0.36866
H         -0.47176        1.54626        0.70681
H          1.19539        1.90163        1.12228
H          0.44690        3.46208       -0.58378
H          1.74918        2.46449       -1.19469
H          0.04599        2.78996       -2.90985
H          0.21029        1.09951       -2.51265
H         -2.13361        1.67243       -2.82062
H         -1.85358        1.11919       -1.19040
H         -3.40015        2.99953       -1.20442
H         -1.94984        3.40248       -0.30376
H         -2.61110        5.30703       -1.60705
H         -1.09979        4.72404       -2.29488
H         -2.72247        3.46788       -3.92186
H         -2.77346        7.40712       -4.86523
H         -4.24756        6.81682       -1.37459
H         -5.91424        7.03882       -1.89661
H         -5.05222        5.57413       -2.35706
H         -3.95155        9.43130       -4.02121
H         -5.34817        9.28338       -2.94435
H         -3.71589        9.06115       -2.30975
H         -5.60977        6.07315       -4.84451
H         -6.50132        7.47270       -4.26636
H         -5.45899        8.76165       -5.67077
H         -1.19321        7.06464       -3.44177

--Link1--
%chk=JID_7428.chk
%mem=8GB
%nprocshared=4
# B3LYP/6-311++G(d,p) empiricaldispersion=gd3bj scf=xqc pop=npa geom=check

CID_85822622_JID_7428_Energie_neutraal

0 1

--Link1--
%chk=JID_7428.chk
%mem=8GB
%nprocshared=4
# B3LYP/6-311++G(d,p) empiricaldispersion=gd3bj scf=xqc pop=npa geom=check

CID_85822622_JID_7428_Energie_kation

1 2

--Link1--
%chk=JID_7428.chk
%mem=8GB
%nprocshared=4
# B3LYP/6-311++G(d,p) empiricaldispersion=gd3bj scf=xqc pop=npa geom=check

CID_85822622_JID_7428_Energie_anion

-1 2
