%chk=JID_7706.chk
%mem=8GB
%nprocshared=4
# opt freq B3LYP/6-31G(d) empiricaldispersion=gd3bj scf=xqc

CID_136976233_JID_7706_neutraal

0 1
C          1.02774        0.09174       -0.02852
C          0.44161        0.66225       -1.31689
C          1.03591       -0.01764       -2.54724
C         -1.07674        0.55531       -1.30007
N         -1.79677        1.62993       -1.23881
C         -3.16798        1.50535       -1.17297
C         -3.76790        0.30417       -1.22994
C         -2.94975       -0.90616       -1.33222
O         -3.45202       -2.02092       -1.40653
N         -1.60812       -0.69929       -1.33141
N         -3.96260        2.63132       -1.03598
C         -3.48000        3.99816       -1.12377
C         -3.34685        4.42712       -2.59572
C         -4.68956        4.95169       -3.11845
C         -2.25135        5.49122       -2.79985
C         -0.84202        5.05133       -2.39972
O         -0.52440        3.77342       -2.92879
H          0.84044       -0.98364        0.06228
H          0.58506        0.57846        0.84739
H          2.11075        0.24936        0.00734
H          0.69876        1.72786       -1.36217
H          0.90070       -1.10422       -2.51955
H          0.56259        0.35180       -3.46325
H          2.11064        0.18131       -2.61596
H         -4.83814        0.16626       -1.18081
H         -1.03089       -1.52412       -1.39419
H         -4.95326        2.49860       -1.20857
H         -4.18085        4.65442       -0.59438
H         -2.53508        4.07655       -0.57880
H         -3.08815        3.55891       -3.21563
H         -5.01070        5.84206       -2.56704
H         -4.61628        5.21969       -4.17776
H         -5.47151        4.19131       -3.02128
H         -2.22986        5.74735       -3.86740
H         -2.50601        6.41177       -2.26072
H         -0.11231        5.76826       -2.79020
H         -0.71367        5.02538       -1.31350
H         -1.02723        3.11230       -2.40593

--Link1--
%chk=JID_7706.chk
%mem=8GB
%nprocshared=4
# B3LYP/6-311++G(d,p) empiricaldispersion=gd3bj scf=xqc pop=npa geom=check

CID_136976233_JID_7706_Energie_neutraal

0 1

--Link1--
%chk=JID_7706.chk
%mem=8GB
%nprocshared=4
# B3LYP/6-311++G(d,p) empiricaldispersion=gd3bj scf=xqc pop=npa geom=check

CID_136976233_JID_7706_Energie_kation

1 2

--Link1--
%chk=JID_7706.chk
%mem=8GB
%nprocshared=4
# B3LYP/6-311++G(d,p) empiricaldispersion=gd3bj scf=xqc pop=npa geom=check

CID_136976233_JID_7706_Energie_anion

-1 2
