%chk=JID_10958.chk
%mem=8GB
%nprocshared=4
# opt freq B3LYP/6-31G(d) empiricaldispersion=gd3bj scf=xqc

CID_45898772_JID_10958_neutraal

0 1
C          1.05698       -0.05967       -0.05650
C          0.16977       -0.52141       -1.20107
N          0.71590       -1.71071       -1.86907
C          0.22873       -3.01381       -1.35234
C         -0.90957       -3.61185       -2.19570
C         -0.48683       -4.67189       -3.20512
C          0.40150       -5.73018       -2.56795
C          1.65204       -5.11732       -1.95506
C          1.33532       -4.01014       -0.95243
C          1.54381       -1.65108       -2.98173
O          1.83519       -2.62949       -3.66125
N          2.05500       -0.41735       -3.28135
C          2.79595       -0.16917       -4.49706
C          1.90658        0.47533       -5.52918
C          1.03791       -0.31191       -6.29701
C          0.18136        0.27694       -7.22905
C          0.18062        1.66372       -7.41370
C          1.03198        2.45399       -6.63293
C          1.88970        1.86536       -5.69982
C         -0.76945        2.29696       -8.38608
H          1.15810       -0.84369        0.70113
H          0.62816        0.82535        0.42331
H          2.06235        0.19410       -0.40664
H         -0.83644       -0.74994       -0.83008
H          0.03237        0.28862       -1.92430
H         -0.23694       -2.75408       -0.39023
H         -1.61802       -4.08975       -1.50485
H         -1.47321       -2.82082       -2.70493
H          0.02588       -4.21038       -4.05430
H         -1.38268       -5.15224       -3.61652
H          0.68868       -6.47173       -3.32211
H         -0.16190       -6.26597       -1.79408
H          2.30540       -4.74275       -2.74773
H          2.22676       -5.90269       -1.44891
H          2.25598       -3.48027       -0.67987
H          0.99934       -4.51248       -0.03399
H          1.78460        0.38899       -2.75129
H          3.23251       -1.09215       -4.89440
H          3.62769        0.49637       -4.24049
H          1.01908       -1.39254       -6.15947
H         -0.48836       -0.35653       -7.80622
H          1.03117        3.53579       -6.74540
H          2.54097        2.50102       -5.10483
H         -0.93323        1.64526       -9.25076
H         -1.73052        2.48840       -7.89889
H         -0.37036        3.24399       -8.76412

--Link1--
%chk=JID_10958.chk
%mem=8GB
%nprocshared=4
# B3LYP/6-311++G(d,p) empiricaldispersion=gd3bj scf=xqc pop=npa geom=check

CID_45898772_JID_10958_Energie_neutraal

0 1

--Link1--
%chk=JID_10958.chk
%mem=8GB
%nprocshared=4
# B3LYP/6-311++G(d,p) empiricaldispersion=gd3bj scf=xqc pop=npa geom=check

CID_45898772_JID_10958_Energie_kation

1 2

--Link1--
%chk=JID_10958.chk
%mem=8GB
%nprocshared=4
# B3LYP/6-311++G(d,p) empiricaldispersion=gd3bj scf=xqc pop=npa geom=check

CID_45898772_JID_10958_Energie_anion

-1 2
