%chk=JID_5369.chk
%mem=8GB
%nprocshared=4
# opt freq B3LYP/6-31G(d) empiricaldispersion=gd3bj scf=xqc

CID_11241162_JID_5369_neutraal

0 1
C          0.94395       -0.03215        0.07632
C         -0.52131        0.24461       -0.05012
C         -1.09416        1.41588        0.28095
C         -2.57151        1.70178        0.22746
C         -3.39040        0.40603        0.09705
C         -4.94682        0.57600        0.07747
C         -5.59079       -0.83917        0.15552
C         -4.89081       -1.89412       -0.65246
C         -3.66461       -1.75170       -1.17824
C         -2.81590       -0.50177       -1.03514
C         -1.37136       -0.86539       -0.60897
O         -0.87100       -1.97516       -0.79197
C         -2.68649        0.13868       -2.43249
C         -5.42013        1.37731        1.31183
C         -5.47873        1.31218       -1.16687
H          1.11942       -0.85972        0.77128
H          1.49137        0.83866        0.45220
H          1.36996       -0.29616       -0.89714
H         -0.46978        2.22727        0.65059
H         -2.77468        2.40068       -0.58955
H         -2.83780        2.21361        1.15905
H         -3.19328       -0.13557        1.04114
H         -5.60236       -1.18941        1.19618
H         -6.63973       -0.78758       -0.16300
H         -5.41847       -2.83560       -0.79078
H         -3.23578       -2.57879       -1.74417
H         -2.21761        1.12653       -2.40457
H         -2.05523       -0.48041       -3.08406
H         -3.64408        0.24077       -2.94689
H         -5.11423        2.42726        1.25355
H         -6.51330        1.36269        1.39528
H         -5.01437        0.95702        2.23878
H         -5.45688        0.68676       -2.06147
H         -6.52897        1.59815       -1.02961
H         -4.91981        2.23065       -1.36820

--Link1--
%chk=JID_5369.chk
%mem=8GB
%nprocshared=4
# B3LYP/6-311++G(d,p) empiricaldispersion=gd3bj scf=xqc pop=npa geom=check

CID_11241162_JID_5369_Energie_neutraal

0 1

--Link1--
%chk=JID_5369.chk
%mem=8GB
%nprocshared=4
# B3LYP/6-311++G(d,p) empiricaldispersion=gd3bj scf=xqc pop=npa geom=check

CID_11241162_JID_5369_Energie_kation

1 2

--Link1--
%chk=JID_5369.chk
%mem=8GB
%nprocshared=4
# B3LYP/6-311++G(d,p) empiricaldispersion=gd3bj scf=xqc pop=npa geom=check

CID_11241162_JID_5369_Energie_anion

-1 2
