%chk=JID_10631.chk
%mem=8GB
%nprocshared=4
# opt freq B3LYP/6-31G(d) empiricaldispersion=gd3bj scf=xqc

CID_107236555_JID_10631_neutraal

0 1
C          2.42900        1.51200       -0.04500
N          1.52414        0.47512        0.39875
C          1.67349       -0.85932        0.12486
C          0.61508       -1.52535        0.69984
C         -0.18250       -0.56718        1.39359
C         -1.34844       -0.64142        2.18543
C         -1.89692        0.52773        2.72229
C         -1.29982        1.76209        2.48566
C         -0.14024        1.86438        1.71144
C          0.40322        0.68516        1.17663
C          0.46195       -2.93881        0.67226
C         -0.52909       -3.69906        0.15124
C         -0.47977       -5.17505        0.50743
O         -1.62707       -5.51204        1.27491
C         -1.74549       -3.24099       -0.69059
C         -1.60212       -1.94625       -1.52675
C         -0.64328       -2.10692       -2.70642
C         -1.09687       -3.22671       -3.63699
C         -1.34058       -4.52726       -2.87918
C         -2.27241       -4.31552       -1.68368
H          1.86697        2.22225       -0.65676
H          2.84914        2.00501        0.83533
H          3.23218        1.06813       -0.63877
H          2.50869       -1.22378       -0.45883
H         -1.82357       -1.59991        2.36957
H         -2.79825        0.46914        3.32700
H         -1.74008        2.66154        2.90984
H          0.31974        2.83132        1.53612
H          1.25909       -3.44922        1.21402
H         -0.43963       -5.81182       -0.37968
H          0.39803       -5.43620        1.10889
H         -1.69848       -4.84267        1.97660
H         -2.55122       -3.06872        0.03712
H         -2.59226       -1.67945       -1.92336
H         -1.31472       -1.08615       -0.92558
H          0.37067       -2.31644       -2.34888
H         -0.59363       -1.16693       -3.26781
H         -0.34742       -3.38688       -4.42013
H         -2.02308       -2.92423       -4.14146
H         -0.38098       -4.93726       -2.54541
H         -1.78045       -5.26656       -3.55834
H         -2.46514       -5.27202       -1.18812
H         -3.25250       -3.99135       -2.06093

--Link1--
%chk=JID_10631.chk
%mem=8GB
%nprocshared=4
# B3LYP/6-311++G(d,p) empiricaldispersion=gd3bj scf=xqc pop=npa geom=check

CID_107236555_JID_10631_Energie_neutraal

0 1

--Link1--
%chk=JID_10631.chk
%mem=8GB
%nprocshared=4
# B3LYP/6-311++G(d,p) empiricaldispersion=gd3bj scf=xqc pop=npa geom=check

CID_107236555_JID_10631_Energie_kation

1 2

--Link1--
%chk=JID_10631.chk
%mem=8GB
%nprocshared=4
# B3LYP/6-311++G(d,p) empiricaldispersion=gd3bj scf=xqc pop=npa geom=check

CID_107236555_JID_10631_Energie_anion

-1 2
